Circuit: * C:\Users\Pedro\Desktop\Práctica - Fuentes de Alimentación Conmutada Libreria switching y average para fuentes conmutadas co\boost_average_CL.asc

Direct Newton iteration failed to find .op point.  (Use ".option noopiter" to skip.)
Starting Gmin stepping
Gmin = 10
Gmin = 1.07374
Gmin = 0.115292
Gmin = 0.0123794
Gmin = 0.00132923
vernier = 0.5
vernier = 0.25
vernier = 0.125
vernier = 0.0625
Gmin = 0.00100083
vernier = 0.03125
vernier = 0.015625
vernier = 0.0078125
vernier = 0.00390625
vernier = 0.00195312
Gmin = 0.00100083
vernier = 0.000976562
vernier = 0.000488281
Gmin = 0
Gmin stepping failed

Starting source stepping with srcstepmethod=0
Source Step = 3.0303%
Source Step = 33.3333%
Source Step = 63.6364%
Source Step = 85.0379%
vernier = 0.015625
Source Step = 84.8722%
Source Step = 84.9018%
Source Step = 84.9313%
Source Step = 84.9609%
Source Step = 84.9905%
vernier = 0.00146484
Source Step = 85.0231%
Source Step = 85.0675%
Source Step = 85.1119%
Source Step = 85.1562%
Source Step = 85.2006%
vernier = 0.00219727
Source Step = 85.2472%
Source Step = 85.3138%
Source Step = 85.3804%
Source Step = 85.447%
Source Step = 85.5136%
Source Step = 85.5802%
vernier = 0.0032959
Source Step = 85.68%
Source Step = 85.7799%
Source Step = 85.8798%
Source Step = 85.9797%
Source Step = 86.0795%
vernier = 0.00494385
Source Step = 86.2244%
Source Step = 86.3742%
Source Step = 86.524%
Source Step = 86.6738%
Source Step = 86.8236%
vernier = 0.00741577
Source Step = 87.0334%
Source Step = 87.2581%
Source Step = 87.4828%
Source Step = 87.7075%
Source Step = 87.9322%
vernier = 0.0111237
Source Step = 88.2356%
Source Step = 88.5727%
Source Step = 88.9098%
Source Step = 89.2469%
Source Step = 89.5839%
vernier = 0.0166855
Source Step = 90.0221%
Source Step = 90.5278%
Source Step = 90.6478%
Source Step = 90.6794%
Source Step = 90.711%
Source Step = 90.7426%
Source Step = 90.7743%
Source Step = 90.8059%
Source Step = 90.8375%
Source Step = 90.8691%
Source Step = 90.9007%
Source Step = 90.9323%
Source Step = 90.9639%
Source Step = 90.9955%
Source Step = 91.0271%
Source Step = 91.0587%
Source Step = 91.0903%
Source Step = 91.1219%
Source Step = 91.1535%
Source Step = 91.1851%
Source Step = 91.2167%
Source Step = 91.2483%
Source Step = 91.2799%
Source Step = 91.3115%
Source Step = 91.3431%
Source Step = 91.3747%
Source Step = 91.4063%
Source Step = 91.4379%
Source Step = 91.4695%
Source Step = 91.5011%
Source Step = 91.5327%
Source Step = 91.5643%
Source Step = 91.5959%
Source Step = 91.6275%
Source Step = 91.6591%
Source Step = 91.6907%
Source Step = 91.7223%
Source Step = 91.7539%
Source Step = 91.7855%
Source Step = 91.8171%
Source Step = 91.8487%
Source Step = 91.8803%
Source Step = 91.9119%
Source Step = 91.9435%
Source Step = 91.9751%
Source Step = 92.0067%
vernier = 0.00156426
Source Step = 92.0541%
Source Step = 92.1015%
Source Step = 92.1489%
Source Step = 92.1963%
Source Step = 92.2437%
vernier = 0.0023464
Source Step = 92.3124%
Source Step = 92.3835%
Source Step = 92.4546%
Source Step = 92.5258%
Source Step = 92.5969%
vernier = 0.00351959
Source Step = 92.6964%
Source Step = 92.8031%
Source Step = 92.9097%
Source Step = 93.0164%
Source Step = 93.123%
vernier = 0.00527939
Source Step = 93.267%
Source Step = 93.427%
Source Step = 93.587%
Source Step = 93.7469%
Source Step = 93.9069%
vernier = 0.00791909
Source Step = 94.1149%
Source Step = 94.3549%
Source Step = 94.5948%
Source Step = 94.8348%
Source Step = 95.0748%
vernier = 0.0118786
Source Step = 95.3748%
Source Step = 95.7347%
Source Step = 96.0947%
Source Step = 96.4546%
Source Step = 96.8146%
vernier = 0.0178179
Source Step = 97.2465%
Source Step = 97.7865%
Source Step = 98.3264%
Source Step = 98.8664%
Source Step = 99.4063%
vernier = 0.0267269
Source Step = 100%
Source stepping succeeded in finding the operating point.

Ignoring empty pin current: Ix(u1:5)
Ignoring empty pin current: Ix(u1:5)

Date: Sat Jun 14 18:06:57 2025
Total elapsed time: 0.288 seconds.

tnom = 27
temp = 27
method = trap
totiter = 30540
traniter = 0
tranpoints = 0
accept = 0
rejected = 0
matrix size = 29
fillins = 43
solver = Normal
Avg thread counts: 1.1/0.0/2.2/1.1
Matrix Compiler1:     157 opcodes
Matrix Compiler2: off  [0.2]/0.3/0.8

