Circuit: * C:\Users\Euge Etcheverry\OneDrive\Escritorio\FIUBA\Taller de Circuitos\Checkpoint4\Simulaciones Buck\buck_driver.asc

Instance "m:u1:_gd_template:_ho_stage:_ho_pmos": Length shorter than recommended for a level 1 MOSFET.
Instance "m:u1:_gd_template:_ho_stage:_ho_nmos": Length shorter than recommended for a level 1 MOSFET.
Instance "m:u1:_gd_template:_lo_stage:_lo_pmos": Length shorter than recommended for a level 1 MOSFET.
Instance "m:u1:_gd_template:_lo_stage:_lo_nmos": Length shorter than recommended for a level 1 MOSFET.
Direct Newton iteration failed to find .op point.  (Use ".option noopiter" to skip.)
Starting Gmin stepping
Gmin = 10
Gmin = 1.07374
vernier = 0.5
vernier = 0.25
vernier = 0.125
vernier = 0.0625
Gmin = 0.995033
vernier = 0.03125
vernier = 0.015625
vernier = 0.0078125
vernier = 0.00390625
Gmin = 1.00079
vernier = 0.00195312
vernier = 0.000976562
vernier = 0.000488281
Gmin = 0
Gmin = 0
Gmin stepping failed

Starting source stepping with srcstepmethod=0
Source Step = 3.0303%
Source Step = 33.3333%
Source Step = 50.1894%
vernier = 0.015625
Source Step = 50.0237%
Starting source stepping with srcstepmethod=1
Source Step = 3.0303%
Source Step = 33.3333%
Source Step = 50.1894%
vernier = 0.015625
Source stepping failed

Pseudo Transient failed in finding the operating point at 5.625 µs.
Trouble finding operating point....skipping operating point for Transient analysis.
Changing Tseed to 1e-11
Changing Tseed to 1e-13
to 1.125e-13
Heightened Def Con from 1.99489e-13 to 6.0002e-09
Heightened Def Con from 6.70012e-07 to 6.70018e-07
Heightened Def Con from 6.70151e-07 to 6.71026e-07
Heightened Def Con from 3.65476e-06 to 3.65976e-06
Heightened Def Con from 3.80332e-06 to 3.80332e-06
Heightened Def Con from 3.80332e-06 to 3.80332e-06
Heightened Def Con from 3.80333e-06 to 3.80333e-06
Heightened Def Con from 3.80336e-06 to 3.80336e-06
Heightened Def Con from 3.80336e-06 to 3.80336e-06
Heightened Def Con from 3.80338e-06 to 3.80339e-06
Heightened Def Con from 3.80339e-06 to 3.80339e-06
Heightened Def Con from 3.80339e-06 to 3.80339e-06
Heightened Def Con from 3.80339e-06 to 3.8034e-06
Heightened Def Con from 3.80342e-06 to 3.80342e-06
Heightened Def Con from 3.80346e-06 to 3.80533e-06
Heightened Def Con from 4.32475e-06 to 4.326e-06
Heightened Def Con from 4.32611e-06 to 4.32698e-06
Heightened Def Con from 9.00714e-06 to 9.00801e-06
Heightened Def Con from 1.68271e-05 to 1.68277e-05
Heightened Def Con from 1.73296e-05 to 1.73304e-05
Heightened Def Con from 2.0992e-05 to 2.09924e-05
Heightened Def Con from 2.09925e-05 to 2.09934e-05
Heightened Def Con from 2.56678e-05 to 2.56687e-05
Heightened Def Con from 2.93175e-05 to 2.93185e-05
Heightened Def Con from 3.39923e-05 to 3.39932e-05
Heightened Def Con from 4.23253e-05 to 4.23253e-05
Heightened Def Con from 4.23255e-05 to 4.23264e-05
Heightened Def Con from 4.59745e-05 to 4.59754e-05
Heightened Def Con from 5.06584e-05 to 5.06593e-05
Heightened Def Con from 5.37858e-05 to 5.37877e-05
Heightened Def Con from 5.43121e-05 to 5.4313e-05
Heightened Def Con from 5.89918e-05 to 5.89927e-05
Heightened Def Con from 6.26343e-05 to 6.26352e-05
Heightened Def Con from 6.68113e-05 to 6.68119e-05
Heightened Def Con from 6.73162e-05 to 6.73171e-05
Heightened Def Con from 7.09652e-05 to 7.09664e-05
Heightened Def Con from 7.5133e-05 to 7.51336e-05
Heightened Def Con from 7.56426e-05 to 7.56434e-05
Heightened Def Con from 7.92966e-05 to 7.93016e-05
Heightened Def Con from 8.76247e-05 to 8.76255e-05
Heightened Def Con from 9.17849e-05 to 9.17855e-05
Heightened Def Con from 9.23037e-05 to 9.23037e-05
Heightened Def Con from 9.23037e-05 to 9.23046e-05
Heightened Def Con from 9.54504e-05 to 9.54584e-05
Heightened Def Con from 0.000100633 to 0.000100634
Heightened Def Con from 0.000103775 to 0.000103776
Heightened Def Con from 0.000104289 to 0.000104289
Heightened Def Con from 0.000104289 to 0.00010429
Heightened Def Con from 0.000108455 to 0.000108455
Heightened Def Con from 0.000108965 to 0.000108966
Heightened Def Con from 0.000112616 to 0.000112617
Heightened Def Con from 0.000117297 to 0.000117298
Heightened Def Con from 0.000120947 to 0.000120948
Heightened Def Con from 0.000125625 to 0.000125626
Heightened Def Con from 0.000128754 to 0.000128756
Heightened Def Con from 0.000129276 to 0.00012928
Heightened Def Con from 0.000133954 to 0.000133955
Heightened Def Con from 0.000137093 to 0.000137094
Heightened Def Con from 0.000142288 to 0.000142289
Heightened Def Con from 0.000145937 to 0.000145938
Heightened Def Con from 0.000145938 to 0.000145943
Heightened Def Con from 0.000150612 to 0.000150613
Heightened Def Con from 0.000154269 to 0.000154274
Heightened Def Con from 0.000158432 to 0.000158432
Heightened Def Con from 0.000158943 to 0.000158944
Heightened Def Con from 0.000162083 to 0.000162083
Heightened Def Con from 0.000162597 to 0.000162598
Heightened Def Con from 0.000166763 to 0.000166764
Heightened Def Con from 0.000167274 to 0.000167274
Heightened Def Con from 0.000170407 to 0.000170409
Heightened Def Con from 0.000170928 to 0.000170929
Heightened Def Con from 0.000170929 to 0.00017093
Heightened Def Con from 0.000179261 to 0.000179261
Heightened Def Con from 0.000183934 to 0.000183935
Heightened Def Con from 0.000187071 to 0.000187072
Heightened Def Con from 0.000187585 to 0.000187585
Heightened Def Con from 0.000187585 to 0.000187586
Heightened Def Con from 0.000191752 to 0.000191753
Heightened Def Con from 0.000195392 to 0.000195392
Heightened Def Con from 0.000200082 to 0.000200083
Heightened Def Con from 0.00020059 to 0.000200591
Heightened Def Con from 0.000203737 to 0.000203738
Heightened Def Con from 0.000208419 to 0.000208419
Heightened Def Con from 0.000208924 to 0.000208925
Heightened Def Con from 0.000212066 to 0.000212068
Heightened Def Con from 0.00021258 to 0.000212581
Heightened Def Con from 0.000217258 to 0.000217258
Heightened Def Con from 0.000228731 to 0.000228733
Heightened Def Con from 0.00022924 to 0.000229241
Heightened Def Con from 0.000233914 to 0.000233915
Heightened Def Con from 0.000237563 to 0.000237564
Heightened Def Con from 0.000237564 to 0.000237565
Heightened Def Con from 0.000242246 to 0.000242246
Heightened Def Con from 0.000250572 to 0.000250572
Heightened Def Con from 0.000254225 to 0.000254226
Heightened Def Con from 0.000258398 to 0.000258399
Heightened Def Con from 0.000258902 to 0.000258902
Heightened Def Con from 0.000258903 to 0.000258903
Heightened Def Con from 0.000262561 to 0.000262561
Heightened Def Con from 0.000262561 to 0.000262562
Heightened Def Con from 0.000267232 to 0.000267233
Heightened Def Con from 0.000270889 to 0.00027089
Heightened Def Con from 0.000275566 to 0.000275567
Heightened Def Con from 0.000278702 to 0.000278704
Heightened Def Con from 0.000283895 to 0.000283896
Heightened Def Con from 0.000287542 to 0.000287547
Heightened Def Con from 0.000291708 to 0.000291708
Heightened Def Con from 0.000292224 to 0.000292225
Heightened Def Con from 0.000300558 to 0.000300559
Heightened Def Con from 0.000304209 to 0.000304209
Heightened Def Con from 0.000308885 to 0.000308886
Heightened Def Con from 0.000312534 to 0.000312535
Heightened Def Con from 0.000317216 to 0.000317216
Heightened Def Con from 0.000320863 to 0.000320864
Heightened Def Con from 0.000325026 to 0.000325026
Heightened Def Con from 0.000325546 to 0.000325547
Heightened Def Con from 0.000328683 to 0.000328685
Heightened Def Con from 0.000329195 to 0.000329196
Heightened Def Con from 0.000333872 to 0.000333873
Heightened Def Con from 0.000342209 to 0.000342209
Heightened Def Con from 0.000345858 to 0.000345859
Heightened Def Con from 0.000350536 to 0.000350537
Heightened Def Con from 0.000354189 to 0.00035419
Heightened Def Con from 0.000358868 to 0.000358869
Heightened Def Con from 0.000362514 to 0.000362515
Heightened Def Con from 0.000367195 to 0.000367196
Heightened Def Con from 0.000370845 to 0.000370846
Heightened Def Con from 0.000370846 to 0.000370847
Heightened Def Con from 0.00037501 to 0.000375011
Heightened Def Con from 0.000375528 to 0.000375529
Heightened Def Con from 0.000378664 to 0.000378666
Heightened Def Con from 0.000379175 to 0.000379176
Heightened Def Con from 0.000383854 to 0.000383854
Heightened Def Con from 0.000383854 to 0.000383855
Heightened Def Con from 0.000387509 to 0.00038751
Heightened Def Con from 0.000392183 to 0.000392184
Heightened Def Con from 0.000395312 to 0.000395313
Heightened Def Con from 0.000395836 to 0.000395837
Heightened Def Con from 0.000400004 to 0.000400004
Heightened Def Con from 0.000400513 to 0.000400513
Heightened Def Con from 0.000404166 to 0.000404167
Heightened Def Con from 0.000408335 to 0.000408336
Heightened Def Con from 0.000408846 to 0.000408847
Heightened Def Con from 0.000412495 to 0.000412495
Heightened Def Con from 0.000417171 to 0.000417172
Heightened Def Con from 0.00042031 to 0.00042031
Heightened Def Con from 0.000420821 to 0.000420821
Heightened Def Con from 0.000420821 to 0.000420822
Heightened Def Con from 0.000425505 to 0.000425506
Heightened Def Con from 0.000428643 to 0.000428651
Heightened Def Con from 0.000429161 to 0.000429162
Heightened Def Con from 0.000433836 to 0.000433837
Heightened Def Con from 0.000437487 to 0.000437492
Heightened Def Con from 0.000442166 to 0.000442167
Heightened Def Con from 0.000445293 to 0.000445294
Heightened Def Con from 0.000445816 to 0.000445817
Heightened Def Con from 0.000450493 to 0.000450493
Heightened Def Con from 0.000450493 to 0.000450494
Heightened Def Con from 0.000454143 to 0.000454143
Heightened Def Con from 0.000454143 to 0.000454144
Heightened Def Con from 0.00046248 to 0.000462481
Heightened Def Con from 0.000466645 to 0.000466646
Heightened Def Con from 0.000467156 to 0.000467157
Heightened Def Con from 0.000474971 to 0.000474972
Heightened Def Con from 0.000475482 to 0.000475483
Heightened Def Con from 0.000479136 to 0.000479136
Heightened Def Con from 0.000479137 to 0.000479142
Heightened Def Con from 0.000483307 to 0.000483308
Heightened Def Con from 0.000483818 to 0.000483819
Heightened Def Con from 0.000487464 to 0.000487465
Heightened Def Con from 0.000487465 to 0.000487466
Heightened Def Con from 0.00049214 to 0.000492141
Heightened Def Con from 0.000495794 to 0.000495795
Heightened Def Con from 0.000499964 to 0.000499965
Heightened Def Con from 0.000500471 to 0.000500471
Heightened Def Con from 0.000500471 to 0.000500472
Heightened Def Con from 0.000503615 to 0.000503623
Heightened Def Con from 0.00050413 to 0.000504135
Heightened Def Con from 0.000508804 to 0.000508804
Heightened Def Con from 0.000525468 to 0.000525469
Heightened Def Con from 0.000529117 to 0.000529118
Heightened Def Con from 0.000533284 to 0.000533284
Heightened Def Con from 0.000533795 to 0.000533796
Heightened Def Con from 0.000536931 to 0.000536931
Heightened Def Con from 0.000537445 to 0.00053745
Heightened Def Con from 0.00054212 to 0.000542121
Heightened Def Con from 0.000545267 to 0.000545268
Heightened Def Con from 0.000545778 to 0.000545781
Heightened Def Con from 0.000549936 to 0.000549936
Heightened Def Con from 0.000554105 to 0.000554106
Heightened Def Con from 0.000554106 to 0.000554107
Heightened Def Con from 0.000558784 to 0.000558785
Heightened Def Con from 0.000567111 to 0.000567113
Heightened Def Con from 0.000570764 to 0.000570764
Heightened Def Con from 0.000570765 to 0.000570765
Heightened Def Con from 0.000579096 to 0.000579096
Heightened Def Con from 0.000579096 to 0.000579097
Heightened Def Con from 0.000583772 to 0.000583773
Heightened Def Con from 0.000592105 to 0.000592105
Heightened Def Con from 0.000595752 to 0.000595752
Heightened Def Con from 0.000595752 to 0.000595753
Heightened Def Con from 0.000600434 to 0.000600435
Heightened Def Con from 0.000603573 to 0.000603574
Heightened Def Con from 0.000604085 to 0.000604086
Heightened Def Con from 0.000604086 to 0.000604087
Heightened Def Con from 0.000608768 to 0.000608768
Heightened Def Con from 0.000612414 to 0.000612414
Heightened Def Con from 0.000617092 to 0.000617092
Heightened Def Con from 0.00062023 to 0.000620232
Heightened Def Con from 0.000620738 to 0.000620739
Heightened Def Con from 0.000624908 to 0.000624908
Heightened Def Con from 0.000625424 to 0.000625425
Heightened Def Con from 0.000628562 to 0.000628562
Heightened Def Con from 0.000629075 to 0.000629076
Heightened Def Con from 0.000633755 to 0.000633756
Heightened Def Con from 0.000637409 to 0.00063741
Heightened Def Con from 0.000642085 to 0.000642086
Heightened Def Con from 0.000645733 to 0.000645734
Heightened Def Con from 0.000645734 to 0.000645739
Heightened Def Con from 0.000650417 to 0.000650418
Heightened Def Con from 0.000653549 to 0.00065355
Heightened Def Con from 0.000654063 to 0.000654063
Heightened Def Con from 0.00065823 to 0.00065823
Heightened Def Con from 0.000662393 to 0.000662395
Heightened Def Con from 0.000662395 to 0.000662396
Heightened Def Con from 0.000666565 to 0.000666565
Heightened Def Con from 0.000667076 to 0.000667077
Heightened Def Con from 0.000670721 to 0.000670722
Heightened Def Con from 0.000675403 to 0.000675404
Heightened Def Con from 0.000679056 to 0.000679057
Heightened Def Con from 0.000683735 to 0.000683736
Heightened Def Con from 0.000687391 to 0.000687391
Heightened Def Con from 0.000687391 to 0.000687392
Heightened Def Con from 0.000691556 to 0.000691556
Heightened Def Con from 0.000692066 to 0.000692067
Heightened Def Con from 0.000695195 to 0.000695197
Heightened Def Con from 0.000695716 to 0.000695717
Heightened Def Con from 0.000695718 to 0.000695718
Heightened Def Con from 0.000699878 to 0.000699879
Heightened Def Con from 0.000700395 to 0.000700396
Heightened Def Con from 0.000704043 to 0.000704044
Heightened Def Con from 0.000708724 to 0.000708725
Heightened Def Con from 0.000712378 to 0.000712378
Heightened Def Con from 0.000712378 to 0.000712379
Heightened Def Con from 0.00071705 to 0.000717051
Heightened Def Con from 0.000720704 to 0.000720705
Heightened Def Con from 0.000725381 to 0.000725382
Heightened Def Con from 0.000729041 to 0.000729042
Heightened Def Con from 0.000729042 to 0.000729043
Heightened Def Con from 0.000733716 to 0.000733716
Heightened Def Con from 0.000733716 to 0.000733717
Heightened Def Con from 0.000736859 to 0.000736859
Heightened Def Con from 0.000737365 to 0.000737366
Heightened Def Con from 0.000741533 to 0.000741533
Heightened Def Con from 0.000745178 to 0.00074518
Heightened Def Con from 0.000745696 to 0.000745697
Heightened Def Con from 0.000750372 to 0.000750373
Heightened Def Con from 0.00075403 to 0.000754031
Heightened Def Con from 0.000754031 to 0.000754032
Heightened Def Con from 0.000758705 to 0.000758707
Heightened Def Con from 0.000767038 to 0.000767039
Heightened Def Con from 0.000770688 to 0.000770688
Heightened Def Con from 0.000774859 to 0.00077486
Heightened Def Con from 0.000778499 to 0.000778507
Heightened Def Con from 0.000779016 to 0.000779017
Heightened Def Con from 0.000779017 to 0.000779018
Heightened Def Con from 0.00078735 to 0.000787351
Heightened Def Con from 0.000795674 to 0.000795679
Heightened Def Con from 0.000800354 to 0.000800355
Heightened Def Con from 0.000804008 to 0.000804013
Heightened Def Con from 0.000808687 to 0.000808688
Heightened Def Con from 0.000811831 to 0.000811839
Heightened Def Con from 0.000812338 to 0.000812338
Heightened Def Con from 0.000817014 to 0.000817015
Heightened Def Con from 0.00082067 to 0.000820675
Heightened Def Con from 0.000825347 to 0.000825348
Heightened Def Con from 0.000828485 to 0.000828487
Heightened Def Con from 0.000836815 to 0.000836817
Heightened Def Con from 0.000837326 to 0.000837327
Heightened Def Con from 0.000842005 to 0.000842006
Heightened Def Con from 0.000844982 to 0.000844986
Heightened Def Con from 0.00084514 to 0.000845142
Heightened Def Con from 0.000849813 to 0.000849813
Heightened Def Con from 0.000850334 to 0.000850339
Heightened Def Con from 0.000858663 to 0.000858663
Heightened Def Con from 0.000862315 to 0.000862316
Heightened Def Con from 0.000862316 to 0.000862317
Heightened Def Con from 0.000867 to 0.000867
Heightened Def Con from 0.000867 to 0.000867001
Heightened Def Con from 0.00087065 to 0.000870653
Heightened Def Con from 0.00087482 to 0.00087482
Heightened Def Con from 0.000875324 to 0.000875325
Heightened Def Con from 0.000878464 to 0.000878465
Heightened Def Con from 0.00087898 to 0.000878981
Heightened Def Con from 0.000883651 to 0.000883652
Heightened Def Con from 0.000887304 to 0.000887305
Heightened Def Con from 0.000887305 to 0.000887306
Heightened Def Con from 0.000891475 to 0.000891476
Heightened Def Con from 0.000891986 to 0.000891987
Heightened Def Con from 0.000895639 to 0.000895639
Heightened Def Con from 0.000903965 to 0.000903966
Heightened Def Con from 0.000903967 to 0.000903967
Heightened Def Con from 0.000908643 to 0.000908643
Heightened Def Con from 0.000912294 to 0.000912294
Heightened Def Con from 0.000916975 to 0.000916976
Heightened Def Con from 0.000920113 to 0.000920115
Heightened Def Con from 0.000920625 to 0.000920626
Heightened Def Con from 0.000925303 to 0.000925304
Heightened Def Con from 0.000928953 to 0.000928954
Heightened Def Con from 0.000928954 to 0.000928955
Heightened Def Con from 0.000933126 to 0.000933126
Heightened Def Con from 0.000933637 to 0.000933637
Heightened Def Con from 0.000937285 to 0.000937286
Heightened Def Con from 0.000937286 to 0.000937287
Heightened Def Con from 0.000941455 to 0.000941456
Heightened Def Con from 0.000941963 to 0.000941964
Heightened Def Con from 0.000945108 to 0.000945108
Heightened Def Con from 0.000945108 to 0.000945115
Heightened Def Con from 0.000953948 to 0.000953949
Heightened Def Con from 0.000958119 to 0.00095812
Heightened Def Con from 0.000958623 to 0.000958624
Heightened Def Con from 0.000961753 to 0.000961761
Heightened Def Con from 0.000962273 to 0.000962274
Heightened Def Con from 0.000962274 to 0.000962275
Heightened Def Con from 0.000966958 to 0.000966958
Heightened Def Con from 0.000970085 to 0.000970085
Heightened Def Con from 0.000970604 to 0.000970605
Heightened Def Con from 0.000970605 to 0.000970606
Heightened Def Con from 0.000974763 to 0.000974763
Heightened Def Con from 0.000975284 to 0.000975285
Heightened Def Con from 0.000978938 to 0.000978938
Heightened Def Con from 0.000978939 to 0.000978939
Heightened Def Con from 0.000983616 to 0.000983617
Heightened Def Con from 0.000987267 to 0.000987268
Heightened Def Con from 0.000991944 to 0.000991944
Heightened Def Con from 0.000991945 to 0.000991946
Heightened Def Con from 0.00099509 to 0.000995091
Heightened Def Con from 0.00100027 to 0.00100027
Heightened Def Con from 0.00100392 to 0.00100392
Heightened Def Con from 0.00100392 to 0.00100392
Heightened Def Con from 0.00100809 to 0.00100809
Heightened Def Con from 0.0010086 to 0.0010086
Heightened Def Con from 0.00101175 to 0.00101175
Heightened Def Con from 0.00101226 to 0.00101226
Heightened Def Con from 0.00101226 to 0.00101226
Heightened Def Con from 0.00101694 to 0.00101694
Heightened Def Con from 0.00102007 to 0.00102007
Heightened Def Con from 0.00102059 to 0.00102059
Heightened Def Con from 0.00102059 to 0.00102059
Heightened Def Con from 0.00102527 to 0.00102527
Heightened Def Con from 0.00102892 to 0.00102892
Heightened Def Con from 0.00103307 to 0.00103307
Heightened Def Con from 0.0010336 to 0.0010336
Heightened Def Con from 0.00103673 to 0.00103673
Heightened Def Con from 0.00103725 to 0.00103725
Heightened Def Con from 0.00103725 to 0.00103725
Heightened Def Con from 0.00104193 to 0.00104193
Heightened Def Con from 0.00104506 to 0.00104506
Heightened Def Con from 0.00104557 to 0.00104557
Heightened Def Con from 0.00104558 to 0.00104558
Heightened Def Con from 0.00105025 to 0.00105026
Heightened Def Con from 0.00105391 to 0.00105391
Heightened Def Con from 0.00105807 to 0.00105807
Heightened Def Con from 0.00105858 to 0.00105858
Heightened Def Con from 0.00106172 to 0.00106173
Heightened Def Con from 0.00106223 to 0.00106223
Heightened Def Con from 0.00106223 to 0.00106224
Heightened Def Con from 0.00106691 to 0.00106691
Heightened Def Con from 0.0010699 to 0.0010699
Heightened Def Con from 0.00107005 to 0.00107006
Heightened Def Con from 0.00107056 to 0.00107056
Heightened Def Con from 0.00107056 to 0.00107057
Heightened Def Con from 0.00107473 to 0.00107473
Heightened Def Con from 0.00107525 to 0.00107525
Heightened Def Con from 0.0010789 to 0.0010789
Heightened Def Con from 0.00108306 to 0.00108306
Heightened Def Con from 0.00108357 to 0.00108358
Heightened Def Con from 0.00108656 to 0.00108656
Heightened Def Con from 0.00108671 to 0.00108672
Heightened Def Con from 0.00108722 to 0.00108723
Heightened Def Con from 0.0010919 to 0.0010919
Heightened Def Con from 0.0010919 to 0.00109191
Heightened Def Con from 0.00110024 to 0.00110024
Heightened Def Con from 0.00110389 to 0.00110389
Heightened Def Con from 0.00110805 to 0.00110805
Heightened Def Con from 0.00110856 to 0.00110856
Heightened Def Con from 0.00111221 to 0.00111221
Heightened Def Con from 0.00111222 to 0.00111222
Heightened Def Con from 0.00111637 to 0.00111637
Heightened Def Con from 0.00111689 to 0.00111689
Heightened Def Con from 0.00112054 to 0.00112054
Heightened Def Con from 0.00112054 to 0.00112055
Heightened Def Con from 0.0011247 to 0.0011247
Heightened Def Con from 0.00112522 to 0.00112523
Heightened Def Con from 0.00112836 to 0.00112836
Heightened Def Con from 0.00112888 to 0.00112888
Heightened Def Con from 0.00112888 to 0.00112888
Heightened Def Con from 0.00113356 to 0.00113356
Heightened Def Con from 0.00113721 to 0.00113721
Heightened Def Con from 0.00114188 to 0.00114188
Heightened Def Con from 0.00114188 to 0.00114188
Heightened Def Con from 0.00114502 to 0.00114503
Heightened Def Con from 0.00114554 to 0.00114554
Heightened Def Con from 0.00114554 to 0.00114554
Heightened Def Con from 0.0011497 to 0.0011497
Heightened Def Con from 0.00115021 to 0.00115022
Heightened Def Con from 0.00115335 to 0.00115335
Heightened Def Con from 0.00115387 to 0.00115387
Heightened Def Con from 0.00115855 to 0.00115855
Heightened Def Con from 0.00115855 to 0.00115855
Heightened Def Con from 0.00116168 to 0.00116168
Heightened Def Con from 0.00116219 to 0.00116219
Heightened Def Con from 0.00116219 to 0.0011622
Heightened Def Con from 0.00116635 to 0.00116636
Heightened Def Con from 0.00116687 to 0.00116688
Heightened Def Con from 0.00117 to 0.00117001
Heightened Def Con from 0.00117053 to 0.00117053
Heightened Def Con from 0.00117521 to 0.00117521
Heightened Def Con from 0.00117818 to 0.00117819
Heightened Def Con from 0.00117885 to 0.00117885
Heightened Def Con from 0.00118353 to 0.00118353
Heightened Def Con from 0.00118667 to 0.00118667
Heightened Def Con from 0.00118719 to 0.00118719
Heightened Def Con from 0.00118719 to 0.00118719
Heightened Def Con from 0.001195 to 0.00119501
Heightened Def Con from 0.00119551 to 0.00119552
Heightened Def Con from 0.00119552 to 0.00119552
Heightened Def Con from 0.00119968 to 0.00119968
Heightened Def Con from 0.00120019 to 0.00120019
Heightened Def Con from 0.00120384 to 0.00120384
Heightened Def Con from 0.00120384 to 0.00120384
Heightened Def Con from 0.00120801 to 0.00120801
Heightened Def Con from 0.00120852 to 0.00120852
Heightened Def Con from 0.00121166 to 0.00121166
Heightened Def Con from 0.00121218 to 0.00121218
Heightened Def Con from 0.00121686 to 0.00121686
Heightened Def Con from 0.0012205 to 0.00122051
Heightened Def Con from 0.00122518 to 0.00122518
Heightened Def Con from 0.00122884 to 0.00122884
Heightened Def Con from 0.00122884 to 0.00122884
Heightened Def Con from 0.00123352 to 0.00123352
Heightened Def Con from 0.00123352 to 0.00123352
Heightened Def Con from 0.00123664 to 0.00123664
Heightened Def Con from 0.00123716 to 0.00123716
Heightened Def Con from 0.00124184 to 0.00124184
Heightened Def Con from 0.00124549 to 0.00124549
Heightened Def Con from 0.00125017 to 0.00125017
Heightened Def Con from 0.00125331 to 0.00125331
Heightened Def Con from 0.00125382 to 0.00125382
Heightened Def Con from 0.00125382 to 0.00125383
Heightened Def Con from 0.00125851 to 0.00125851
Heightened Def Con from 0.00126164 to 0.00126165
Heightened Def Con from 0.00126216 to 0.00126216
Heightened Def Con from 0.00126633 to 0.00126633
Heightened Def Con from 0.00126684 to 0.00126684
Heightened Def Con from 0.00126997 to 0.00126997
Heightened Def Con from 0.00127049 to 0.00127049
Heightened Def Con from 0.00127049 to 0.00127049
Heightened Def Con from 0.00127516 to 0.00127516
Heightened Def Con from 0.00127516 to 0.00127517
Heightened Def Con from 0.00127815 to 0.00127815
Heightened Def Con from 0.00127882 to 0.00127882
Heightened Def Con from 0.00128299 to 0.00128299
Heightened Def Con from 0.00128349 to 0.00128349
Heightened Def Con from 0.00128715 to 0.00128715
Heightened Def Con from 0.00129547 to 0.00129548
Heightened Def Con from 0.00129963 to 0.00129963
Heightened Def Con from 0.00130329 to 0.00130329
Heightened Def Con from 0.00130381 to 0.00130381
Heightened Def Con from 0.00130381 to 0.00130381
Heightened Def Con from 0.00130848 to 0.00130849
Heightened Def Con from 0.00131163 to 0.00131164
Heightened Def Con from 0.00131214 to 0.00131214
Heightened Def Con from 0.00131214 to 0.00131214
Heightened Def Con from 0.00131681 to 0.00131681
Heightened Def Con from 0.00132047 to 0.00132047
Heightened Def Con from 0.00132463 to 0.00132463
Heightened Def Con from 0.00132514 to 0.00132514
Heightened Def Con from 0.00132514 to 0.00132514
Heightened Def Con from 0.00132828 to 0.00132828
Heightened Def Con from 0.00132879 to 0.00132879
Heightened Def Con from 0.00132879 to 0.00132879
Heightened Def Con from 0.00133295 to 0.00133295
Heightened Def Con from 0.00133347 to 0.00133347
Heightened Def Con from 0.00133712 to 0.00133712
Heightened Def Con from 0.00133712 to 0.00133713
Heightened Def Con from 0.0013418 to 0.00134181
Heightened Def Con from 0.00134494 to 0.00134494
Heightened Def Con from 0.00134545 to 0.00134546
Heightened Def Con from 0.00135013 to 0.00135014
Heightened Def Con from 0.00135379 to 0.00135379
Heightened Def Con from 0.00135796 to 0.00135796
Heightened Def Con from 0.00135847 to 0.00135847
Heightened Def Con from 0.0013616 to 0.0013616
Heightened Def Con from 0.00136161 to 0.00136161
Heightened Def Con from 0.00136211 to 0.00136211
Heightened Def Con from 0.00136628 to 0.00136628
Heightened Def Con from 0.0013668 to 0.0013668
Heightened Def Con from 0.00137044 to 0.00137044
Heightened Def Con from 0.0013746 to 0.0013746
Heightened Def Con from 0.00137512 to 0.00137512
Heightened Def Con from 0.00137826 to 0.00137826
Heightened Def Con from 0.00137877 to 0.00137877
Heightened Def Con from 0.00138293 to 0.00138293
Heightened Def Con from 0.0013871 to 0.0013871
Heightened Def Con from 0.0013871 to 0.0013871
Heightened Def Con from 0.00139128 to 0.00139129
Heightened Def Con from 0.00139179 to 0.00139179
Heightened Def Con from 0.00139476 to 0.00139477
Heightened Def Con from 0.00139543 to 0.00139544
Heightened Def Con from 0.00139544 to 0.00139544
Heightened Def Con from 0.00140012 to 0.00140012
Heightened Def Con from 0.00140325 to 0.00140325
Heightened Def Con from 0.00140376 to 0.00140376
Heightened Def Con from 0.00140376 to 0.00140376
Heightened Def Con from 0.00140792 to 0.00140793
Heightened Def Con from 0.00141158 to 0.00141159
Heightened Def Con from 0.00141209 to 0.0014121
Heightened Def Con from 0.0014121 to 0.0014121
Heightened Def Con from 0.00141627 to 0.00141627
Heightened Def Con from 0.00141678 to 0.00141678
Heightened Def Con from 0.00141991 to 0.00141992
Heightened Def Con from 0.00142043 to 0.00142043
Heightened Def Con from 0.00142043 to 0.00142043
Heightened Def Con from 0.00142459 to 0.00142459
Heightened Def Con from 0.00142511 to 0.00142511
Heightened Def Con from 0.00142876 to 0.00142876
Heightened Def Con from 0.00142876 to 0.00142876
Heightened Def Con from 0.00143656 to 0.00143657
Heightened Def Con from 0.00143709 to 0.00143709
Heightened Def Con from 0.00144125 to 0.00144125
Heightened Def Con from 0.00144176 to 0.00144176
Heightened Def Con from 0.00144176 to 0.00144176
Heightened Def Con from 0.00144542 to 0.00144542
Heightened Def Con from 0.00144542 to 0.00144542
Heightened Def Con from 0.0014501 to 0.0014501
Heightened Def Con from 0.00145792 to 0.00145793
Heightened Def Con from 0.00145843 to 0.00145843
Heightened Def Con from 0.00146156 to 0.00146156
Heightened Def Con from 0.00146207 to 0.00146207
Heightened Def Con from 0.00146988 to 0.00146988
Heightened Def Con from 0.0014704 to 0.0014704
Heightened Def Con from 0.00147457 to 0.00147457
Heightened Def Con from 0.00147874 to 0.00147874
Heightened Def Con from 0.00147874 to 0.00147874
Heightened Def Con from 0.00148342 to 0.00148342
Heightened Def Con from 0.00148655 to 0.00148656
Heightened Def Con from 0.00148706 to 0.00148707
Heightened Def Con from 0.00148707 to 0.00148707
Heightened Def Con from 0.00149123 to 0.00149123
Heightened Def Con from 0.00149174 to 0.00149174
Heightened Def Con from 0.00149488 to 0.00149488
Heightened Def Con from 0.00149488 to 0.00149488
Heightened Def Con from 0.0014954 to 0.0014954
Heightened Def Con from 0.00150007 to 0.00150007
Heightened Def Con from 0.00150373 to 0.00150373
Heightened Def Con from 0.00150373 to 0.00150373
Heightened Def Con from 0.00150789 to 0.00150791
Heightened Def Con from 0.0015084 to 0.00150841
Heightened Def Con from 0.00151206 to 0.00151206
Heightened Def Con from 0.00152039 to 0.00152039
Heightened Def Con from 0.00152455 to 0.00152455
Heightened Def Con from 0.00152507 to 0.00152507
Heightened Def Con from 0.00152872 to 0.00152872
Heightened Def Con from 0.0015334 to 0.0015334
Heightened Def Con from 0.00154172 to 0.00154172
Heightened Def Con from 0.00154538 to 0.00154538
Heightened Def Con from 0.00154954 to 0.00154954
Heightened Def Con from 0.00155006 to 0.00155006
Heightened Def Con from 0.00155838 to 0.00155838
Heightened Def Con from 0.00156203 to 0.00156203
Heightened Def Con from 0.00156203 to 0.00156203
Heightened Def Con from 0.0015662 to 0.0015662
Heightened Def Con from 0.00156672 to 0.00156672
Heightened Def Con from 0.00156985 to 0.00156985
Heightened Def Con from 0.00157037 to 0.00157037
Heightened Def Con from 0.00157454 to 0.00157454
Heightened Def Con from 0.00157505 to 0.00157505
Heightened Def Con from 0.0015787 to 0.0015787
Heightened Def Con from 0.0015787 to 0.0015787
Heightened Def Con from 0.00158287 to 0.00158287
Heightened Def Con from 0.00158338 to 0.00158338
Heightened Def Con from 0.00158338 to 0.00158338
Heightened Def Con from 0.00158703 to 0.00158703
Heightened Def Con from 0.00159484 to 0.00159485
Heightened Def Con from 0.00159535 to 0.00159535
Heightened Def Con from 0.00159535 to 0.00159535
Heightened Def Con from 0.00160003 to 0.00160003
Heightened Def Con from 0.00160369 to 0.00160369
Heightened Def Con from 0.00160369 to 0.00160369
Heightened Def Con from 0.00160785 to 0.00160785
Heightened Def Con from 0.00160836 to 0.00160836
Heightened Def Con from 0.00161202 to 0.00161202
Heightened Def Con from 0.00161202 to 0.00161202
Heightened Def Con from 0.00161669 to 0.00161669
Heightened Def Con from 0.00162035 to 0.00162036
Heightened Def Con from 0.00162451 to 0.00162451
Heightened Def Con from 0.00162503 to 0.00162503
Heightened Def Con from 0.00162816 to 0.00162816
Heightened Def Con from 0.00162868 to 0.00162868
Heightened Def Con from 0.00162868 to 0.00162868
Heightened Def Con from 0.00163285 to 0.00163285
Heightened Def Con from 0.00163336 to 0.00163336
Heightened Def Con from 0.00163648 to 0.00163648
Heightened Def Con from 0.001637 to 0.001637
Heightened Def Con from 0.001637 to 0.001637
Heightened Def Con from 0.00164168 to 0.00164169
Heightened Def Con from 0.00164533 to 0.00164533
Heightened Def Con from 0.00164533 to 0.00164534
Heightened Def Con from 0.00164951 to 0.00164951
Heightened Def Con from 0.00165001 to 0.00165001
Heightened Def Con from 0.00165315 to 0.00165316
Heightened Def Con from 0.00165835 to 0.00165835
Heightened Def Con from 0.001662 to 0.001662
Heightened Def Con from 0.001662 to 0.001662
Heightened Def Con from 0.00166616 to 0.00166616
Heightened Def Con from 0.00166981 to 0.00166981
Heightened Def Con from 0.00167033 to 0.00167033
Heightened Def Con from 0.00167033 to 0.00167033
Heightened Def Con from 0.001675 to 0.001675
Heightened Def Con from 0.00167814 to 0.00167814
Heightened Def Con from 0.00167866 to 0.00167866
Heightened Def Con from 0.00168334 to 0.00168334
Heightened Def Con from 0.00168699 to 0.00168699
Heightened Def Con from 0.00168699 to 0.00168699
Heightened Def Con from 0.00169116 to 0.00169116
Heightened Def Con from 0.00169167 to 0.00169167
Heightened Def Con from 0.00169532 to 0.00169532
Heightened Def Con from 0.0017 to 0.0017
Heightened Def Con from 0.00170365 to 0.00170365
Heightened Def Con from 0.00170832 to 0.00170832
Heightened Def Con from 0.00171147 to 0.00171147
Heightened Def Con from 0.00171198 to 0.00171198
Heightened Def Con from 0.00171665 to 0.00171665
Heightened Def Con from 0.00171665 to 0.00171665
Heightened Def Con from 0.0017203 to 0.0017203
Heightened Def Con from 0.0017203 to 0.0017203
Heightened Def Con from 0.00172447 to 0.00172447
Heightened Def Con from 0.00172498 to 0.00172498
Heightened Def Con from 0.00172864 to 0.00172864
Heightened Def Con from 0.00172864 to 0.00172864
Heightened Def Con from 0.0017328 to 0.0017328
Heightened Def Con from 0.00173331 to 0.00173331
Heightened Def Con from 0.00173696 to 0.00173696
Heightened Def Con from 0.00174165 to 0.00174165
Heightened Def Con from 0.00174165 to 0.00174165
Heightened Def Con from 0.00174477 to 0.00174478
Heightened Def Con from 0.0017453 to 0.0017453
Heightened Def Con from 0.00174997 to 0.00174998
Heightened Def Con from 0.00175363 to 0.00175363
Heightened Def Con from 0.0017583 to 0.00175831
Heightened Def Con from 0.00176195 to 0.00176196
Heightened Def Con from 0.00176613 to 0.00176613
Heightened Def Con from 0.00176977 to 0.00176977
Heightened Def Con from 0.00177445 to 0.00177445
Heightened Def Con from 0.00177496 to 0.00177497
Heightened Def Con from 0.0017781 to 0.0017781
Heightened Def Con from 0.00177861 to 0.00177861
Heightened Def Con from 0.00177861 to 0.00177861
Heightened Def Con from 0.00178279 to 0.00178279
Heightened Def Con from 0.00178329 to 0.00178329
Heightened Def Con from 0.00178642 to 0.00178642
Heightened Def Con from 0.00178694 to 0.00178694
Heightened Def Con from 0.00178694 to 0.00178695
Heightened Def Con from 0.00179112 to 0.00179112
Heightened Def Con from 0.00179163 to 0.00179163
Heightened Def Con from 0.00179476 to 0.00179476
Heightened Def Con from 0.00179528 to 0.00179528
Heightened Def Con from 0.00179528 to 0.00179528
Heightened Def Con from 0.00180293 to 0.00180294
Heightened Def Con from 0.00180309 to 0.00180309
Heightened Def Con from 0.00180778 to 0.00180778
Heightened Def Con from 0.00180829 to 0.00180829
Heightened Def Con from 0.00181142 to 0.00181143
Heightened Def Con from 0.00181194 to 0.00181194
Heightened Def Con from 0.00181194 to 0.00181194
Heightened Def Con from 0.00181611 to 0.00181611
Heightened Def Con from 0.00181661 to 0.00181661
Heightened Def Con from 0.00181975 to 0.00181975
Heightened Def Con from 0.00182027 to 0.00182027
Heightened Def Con from 0.00182495 to 0.00182495
Heightened Def Con from 0.0018286 to 0.0018286
Heightened Def Con from 0.0018286 to 0.0018286
Heightened Def Con from 0.00183328 to 0.00183328
Heightened Def Con from 0.00183693 to 0.00183693
Heightened Def Con from 0.0018416 to 0.0018416
Heightened Def Con from 0.00184526 to 0.00184526
Heightened Def Con from 0.00184526 to 0.00184526
Heightened Def Con from 0.00184943 to 0.00184943
Heightened Def Con from 0.00184994 to 0.00184994
Heightened Def Con from 0.00185358 to 0.00185358
Heightened Def Con from 0.00185358 to 0.00185358
Heightened Def Con from 0.00185776 to 0.00185776
Heightened Def Con from 0.00185826 to 0.00185826
Heightened Def Con from 0.0018614 to 0.0018614
Heightened Def Con from 0.00186192 to 0.00186192
Heightened Def Con from 0.00186192 to 0.00186192
Heightened Def Con from 0.00186659 to 0.00186659
Heightened Def Con from 0.00187025 to 0.00187025
Heightened Def Con from 0.00187492 to 0.00187492
Heightened Def Con from 0.00187806 to 0.00187806
Heightened Def Con from 0.00188325 to 0.00188325
Heightened Def Con from 0.00188638 to 0.00188638
Heightened Def Con from 0.00188691 to 0.00188691
Heightened Def Con from 0.00188691 to 0.00188691
Heightened Def Con from 0.00189158 to 0.00189158
Heightened Def Con from 0.00189158 to 0.00189158
Heightened Def Con from 0.00189523 to 0.00189524
Heightened Def Con from 0.00189524 to 0.00189524
Heightened Def Con from 0.00189941 to 0.00189941
Heightened Def Con from 0.00189992 to 0.00189992
Heightened Def Con from 0.00190357 to 0.00190357
Heightened Def Con from 0.00190825 to 0.00190825
Heightened Def Con from 0.0019119 to 0.0019119
Heightened Def Con from 0.00191658 to 0.00191658
Heightened Def Con from 0.00192022 to 0.00192022
Heightened Def Con from 0.0019249 to 0.0019249
Heightened Def Con from 0.0019249 to 0.0019249
Heightened Def Con from 0.00192855 to 0.00192856
Heightened Def Con from 0.00193272 to 0.00193273
Heightened Def Con from 0.00193324 to 0.00193324
Heightened Def Con from 0.00193637 to 0.00193637
Heightened Def Con from 0.00194105 to 0.00194106
Heightened Def Con from 0.00194157 to 0.00194157
Heightened Def Con from 0.0019447 to 0.00194471
Heightened Def Con from 0.00194521 to 0.00194522
Heightened Def Con from 0.00194939 to 0.00194939
Heightened Def Con from 0.0019499 to 0.0019499
Heightened Def Con from 0.00195302 to 0.00195303
Heightened Def Con from 0.00195354 to 0.00195355
Heightened Def Con from 0.00195355 to 0.00195355
Heightened Def Con from 0.00195822 to 0.00195822
Heightened Def Con from 0.00196187 to 0.00196187
Heightened Def Con from 0.00196605 to 0.00196605
Heightened Def Con from 0.00196656 to 0.00196656
Heightened Def Con from 0.00196656 to 0.00196656
Heightened Def Con from 0.00196969 to 0.0019697
Heightened Def Con from 0.0019702 to 0.0019702
Heightened Def Con from 0.0019702 to 0.00197021
Heightened Def Con from 0.00197488 to 0.00197488
Heightened Def Con from 0.00197802 to 0.00197802
Heightened Def Con from 0.00197853 to 0.00197853
Heightened Def Con from 0.00198321 to 0.00198322
Heightened Def Con from 0.00198686 to 0.00198687
Heightened Def Con from 0.00199104 to 0.00199104
Heightened Def Con from 0.00199154 to 0.00199154
Heightened Def Con from 0.00199468 to 0.00199468
Heightened Def Con from 0.00199519 to 0.00199519
Heightened Def Con from 0.00199519 to 0.00199519
Heightened Def Con from 0.00199988 to 0.00199988
Heightened Def Con from 0.00200352 to 0.00200353
Heightened Def Con from 0.00200353 to 0.00200353
Heightened Def Con from 0.00200768 to 0.00200768
Heightened Def Con from 0.0020082 to 0.0020082
Heightened Def Con from 0.0020082 to 0.0020082
Heightened Def Con from 0.00201135 to 0.00201135
Heightened Def Con from 0.00201186 to 0.00201186
Heightened Def Con from 0.00201186 to 0.00201186
Heightened Def Con from 0.00201602 to 0.00201602
Heightened Def Con from 0.00201654 to 0.00201654
Heightened Def Con from 0.00201952 to 0.00201952
Heightened Def Con from 0.00201968 to 0.00201968
Heightened Def Con from 0.00202018 to 0.00202019
Heightened Def Con from 0.00202487 to 0.00202487
Heightened Def Con from 0.00202801 to 0.00202801
Heightened Def Con from 0.00202852 to 0.00202852
Heightened Def Con from 0.00203319 to 0.0020332
Heightened Def Con from 0.00203685 to 0.00203685
Heightened Def Con from 0.00203685 to 0.00203685
Heightened Def Con from 0.00204153 to 0.00204153
Heightened Def Con from 0.00204518 to 0.00204518
Heightened Def Con from 0.00204985 to 0.00204986
Heightened Def Con from 0.00205351 to 0.00205351
Heightened Def Con from 0.00205818 to 0.00205818
Heightened Def Con from 0.00206183 to 0.00206183
Heightened Def Con from 0.00206183 to 0.00206183
Heightened Def Con from 0.00206652 to 0.00206652
Heightened Def Con from 0.00207017 to 0.00207017
Heightened Def Con from 0.00207484 to 0.00207484
Heightened Def Con from 0.00207484 to 0.00207485
Heightened Def Con from 0.0020785 to 0.0020785
Heightened Def Con from 0.0020785 to 0.0020785
Heightened Def Con from 0.00208318 to 0.00208318
Heightened Def Con from 0.00208318 to 0.00208318
Heightened Def Con from 0.002091 to 0.002091
Heightened Def Con from 0.00209151 to 0.00209151
Heightened Def Con from 0.00209516 to 0.00209516
Heightened Def Con from 0.00209983 to 0.00209983
Heightened Def Con from 0.00210298 to 0.00210298
Heightened Def Con from 0.00210349 to 0.00210349
Heightened Def Con from 0.00210349 to 0.00210349
Heightened Def Con from 0.00210817 to 0.00210817
Heightened Def Con from 0.00211129 to 0.0021113
Heightened Def Con from 0.00211182 to 0.00211182
Heightened Def Con from 0.00211599 to 0.00211599
Heightened Def Con from 0.0021165 to 0.0021165
Heightened Def Con from 0.00211962 to 0.00211963
Heightened Def Con from 0.00212014 to 0.00212015
Heightened Def Con from 0.00212431 to 0.00212432
Heightened Def Con from 0.00212848 to 0.00212848
Heightened Def Con from 0.00212848 to 0.00212848
Heightened Def Con from 0.00213315 to 0.00213315
Heightened Def Con from 0.00213681 to 0.00213681
Heightened Def Con from 0.00213681 to 0.00213681
Heightened Def Con from 0.00214148 to 0.00214149
Heightened Def Con from 0.00214514 to 0.00214514
Heightened Def Con from 0.00214514 to 0.00214514
Heightened Def Con from 0.00214981 to 0.00214981
Heightened Def Con from 0.00215347 to 0.00215347
Heightened Def Con from 0.00215347 to 0.00215347
Heightened Def Con from 0.00215815 to 0.00215815
Heightened Def Con from 0.00216128 to 0.00216128
Heightened Def Con from 0.00216179 to 0.00216179
Heightened Def Con from 0.00216596 to 0.00216596
Heightened Def Con from 0.00216647 to 0.00216647
Heightened Def Con from 0.00216961 to 0.00216961
Heightened Def Con from 0.00217013 to 0.00217013
Heightened Def Con from 0.00217013 to 0.00217013
Heightened Def Con from 0.0021743 to 0.0021743
Heightened Def Con from 0.0021748 to 0.0021748
Heightened Def Con from 0.00217794 to 0.00217794
Heightened Def Con from 0.00217845 to 0.00217845
Heightened Def Con from 0.00217845 to 0.00217846
Heightened Def Con from 0.00218262 to 0.00218262
Heightened Def Con from 0.00218313 to 0.00218313
Heightened Def Con from 0.00218678 to 0.00218678
Heightened Def Con from 0.00218678 to 0.00218679
Heightened Def Con from 0.00219095 to 0.00219095
Heightened Def Con from 0.00219147 to 0.00219147
Heightened Def Con from 0.00219512 to 0.00219512
Heightened Def Con from 0.00219979 to 0.00219979
Heightened Def Con from 0.00219979 to 0.00219979
Heightened Def Con from 0.00219979 to 0.00219979
Heightened Def Con from 0.00220293 to 0.00220293
Heightened Def Con from 0.00220345 to 0.00220345
Heightened Def Con from 0.00220345 to 0.00220345
Heightened Def Con from 0.00220812 to 0.00220812
Heightened Def Con from 0.00221127 to 0.00221127
Heightened Def Con from 0.00221178 to 0.00221178
Heightened Def Con from 0.00221178 to 0.00221178
Heightened Def Con from 0.00221178 to 0.00221178
Heightened Def Con from 0.00221646 to 0.00221646
Heightened Def Con from 0.0022201 to 0.0022201
Heightened Def Con from 0.0022201 to 0.0022201
Heightened Def Con from 0.00222427 to 0.00222427
Heightened Def Con from 0.00222478 to 0.00222479
Heightened Def Con from 0.00222843 to 0.00222843
Heightened Def Con from 0.00223311 to 0.00223311
Heightened Def Con from 0.00223677 to 0.00223677
Heightened Def Con from 0.00224144 to 0.00224144
Heightened Def Con from 0.00224977 to 0.00224977
Heightened Def Con from 0.00225342 to 0.00225343
Heightened Def Con from 0.00225811 to 0.00225811
Heightened Def Con from 0.00226124 to 0.00226124
Heightened Def Con from 0.00226176 to 0.00226176
Heightened Def Con from 0.00226644 to 0.00226644
Heightened Def Con from 0.00227009 to 0.00227009
Heightened Def Con from 0.00227009 to 0.00227009
Heightened Def Con from 0.00227477 to 0.00227477
Heightened Def Con from 0.00227842 to 0.00227842
Heightened Def Con from 0.00227842 to 0.00227842
Heightened Def Con from 0.00228309 to 0.00228309
Heightened Def Con from 0.00228622 to 0.00228622
Heightened Def Con from 0.00228674 to 0.00228674
Heightened Def Con from 0.00228674 to 0.00228674
Heightened Def Con from 0.00229142 to 0.00229142
Heightened Def Con from 0.00229508 to 0.00229508
Heightened Def Con from 0.00229975 to 0.00229975
Heightened Def Con from 0.00229975 to 0.00229976
Heightened Def Con from 0.0023034 to 0.00230341
Heightened Def Con from 0.00230341 to 0.00230341
Heightened Def Con from 0.00230808 to 0.00230808
Heightened Def Con from 0.00231122 to 0.00231122
Heightened Def Con from 0.00231174 to 0.00231174
Heightened Def Con from 0.00231174 to 0.00231174
Heightened Def Con from 0.00231642 to 0.00231642
Heightened Def Con from 0.00232007 to 0.00232007
Heightened Def Con from 0.00232423 to 0.00232424
Heightened Def Con from 0.00232475 to 0.00232475
Heightened Def Con from 0.00232788 to 0.00232788
Heightened Def Con from 0.0023284 to 0.0023284
Heightened Def Con from 0.0023284 to 0.0023284
Heightened Def Con from 0.00233308 to 0.00233308
Heightened Def Con from 0.00233672 to 0.00233672
Heightened Def Con from 0.00233672 to 0.00233672
Heightened Def Con from 0.00234141 to 0.00234141
Heightened Def Con from 0.00234438 to 0.00234439
Heightened Def Con from 0.00234505 to 0.00234505
Heightened Def Con from 0.00234973 to 0.00234973
Heightened Def Con from 0.00235287 to 0.00235288
Heightened Def Con from 0.00235338 to 0.00235338
Heightened Def Con from 0.00235806 to 0.00235806
Heightened Def Con from 0.00235806 to 0.00235806
Heightened Def Con from 0.00236171 to 0.00236171
Heightened Def Con from 0.00236171 to 0.00236171
Heightened Def Con from 0.00236589 to 0.00236589
Heightened Def Con from 0.0023664 to 0.0023664
Heightened Def Con from 0.0023664 to 0.0023664
Heightened Def Con from 0.00237004 to 0.00237004
Heightened Def Con from 0.00237004 to 0.00237004
Heightened Def Con from 0.00237421 to 0.00237422
Heightened Def Con from 0.00237472 to 0.00237472
Heightened Def Con from 0.00237786 to 0.00237786
Heightened Def Con from 0.00237838 to 0.00237838
Heightened Def Con from 0.00237838 to 0.00237838
Heightened Def Con from 0.00238254 to 0.00238254
Heightened Def Con from 0.00238305 to 0.00238305
Heightened Def Con from 0.00238619 to 0.00238619
Heightened Def Con from 0.0023867 to 0.0023867
Heightened Def Con from 0.00239139 to 0.00239139
Heightened Def Con from 0.00239503 to 0.00239504
Heightened Def Con from 0.00239504 to 0.00239504
Heightened Def Con from 0.00239971 to 0.00239971
Heightened Def Con from 0.00240336 to 0.00240336
Heightened Def Con from 0.00240336 to 0.00240337
Heightened Def Con from 0.00240804 to 0.00240805
Heightened Def Con from 0.0024117 to 0.0024117
Heightened Def Con from 0.00241586 to 0.00241586
Heightened Def Con from 0.00242002 to 0.00242002
Heightened Def Con from 0.0024247 to 0.0024247
Heightened Def Con from 0.00242836 to 0.00242836
Heightened Def Con from 0.00242836 to 0.00242836
Heightened Def Con from 0.00243303 to 0.00243303
Heightened Def Con from 0.00243303 to 0.00243303
Heightened Def Con from 0.00243617 to 0.00243617
Heightened Def Con from 0.00243669 to 0.00243669
Heightened Def Con from 0.00243669 to 0.00243669
Heightened Def Con from 0.00244085 to 0.00244086
Heightened Def Con from 0.00244137 to 0.00244137
Heightened Def Con from 0.0024445 to 0.00244451
Heightened Def Con from 0.00244502 to 0.00244502
Heightened Def Con from 0.00244919 to 0.00244919
Heightened Def Con from 0.00244969 to 0.0024497
Heightened Def Con from 0.00245334 to 0.00245335
Heightened Def Con from 0.00245335 to 0.00245335
Heightened Def Con from 0.00245803 to 0.00245803
Heightened Def Con from 0.00245803 to 0.00245803
Heightened Def Con from 0.00246116 to 0.00246116
Heightened Def Con from 0.00246167 to 0.00246167
Heightened Def Con from 0.00246585 to 0.00246585
Heightened Def Con from 0.00246636 to 0.00246636
Heightened Def Con from 0.00247 to 0.00247001
Heightened Def Con from 0.00247001 to 0.00247001
Heightened Def Con from 0.00247418 to 0.00247418
Heightened Def Con from 0.00247469 to 0.00247469
Heightened Def Con from 0.00247469 to 0.00247469
Heightened Def Con from 0.00247782 to 0.00247782
Heightened Def Con from 0.00247834 to 0.00247834
Heightened Def Con from 0.00248251 to 0.00248251
Heightened Def Con from 0.00248615 to 0.00248615
Heightened Def Con from 0.00248666 to 0.00248667
Heightened Def Con from 0.00249083 to 0.00249083
Heightened Def Con from 0.00249134 to 0.00249135
Heightened Def Con from 0.002495 to 0.002495
Heightened Def Con from 0.00249967 to 0.00249967
Heightened Def Con from 0.00250281 to 0.00250281
Heightened Def Con from 0.00250332 to 0.00250333
Heightened Def Con from 0.00250333 to 0.00250333
Heightened Def Con from 0.00250749 to 0.00250749
Heightened Def Con from 0.002508 to 0.002508
Heightened Def Con from 0.00251166 to 0.00251166
Heightened Def Con from 0.00251166 to 0.00251166
Heightened Def Con from 0.00251633 to 0.00251633
Heightened Def Con from 0.00251947 to 0.00251947
Heightened Def Con from 0.00251998 to 0.00251998
Heightened Def Con from 0.00251998 to 0.00251998
Heightened Def Con from 0.00252466 to 0.00252467
Heightened Def Con from 0.00252832 to 0.00252832
Heightened Def Con from 0.00253248 to 0.00253248
Heightened Def Con from 0.002533 to 0.002533
Heightened Def Con from 0.002533 to 0.002533
Heightened Def Con from 0.00253665 to 0.00253665
Heightened Def Con from 0.00253665 to 0.00253665
Heightened Def Con from 0.00254133 to 0.00254133
Heightened Def Con from 0.00254446 to 0.00254447
Heightened Def Con from 0.00254497 to 0.00254497
Heightened Def Con from 0.00254497 to 0.00254498
Heightened Def Con from 0.00254915 to 0.00254915
Heightened Def Con from 0.00254966 to 0.00254966
Heightened Def Con from 0.00254966 to 0.00254966
Heightened Def Con from 0.00255279 to 0.00255279
Heightened Def Con from 0.0025533 to 0.00255331
Heightened Def Con from 0.00255748 to 0.00255748
Heightened Def Con from 0.00256163 to 0.00256163
Heightened Def Con from 0.00256163 to 0.00256163
Heightened Def Con from 0.00256581 to 0.00256581
Heightened Def Con from 0.00256996 to 0.00256996
Heightened Def Con from 0.00256996 to 0.00256996
Heightened Def Con from 0.00257413 to 0.00257413
Heightened Def Con from 0.00257465 to 0.00257465
Heightened Def Con from 0.0025783 to 0.0025783
Heightened Def Con from 0.00258246 to 0.00258246
Heightened Def Con from 0.00258297 to 0.00258297
Heightened Def Con from 0.00258662 to 0.00258662
Heightened Def Con from 0.00258662 to 0.00258663
Heightened Def Con from 0.0025913 to 0.00259131
Heightened Def Con from 0.00259444 to 0.00259445
Heightened Def Con from 0.00259496 to 0.00259496
Heightened Def Con from 0.00259496 to 0.00259496
Heightened Def Con from 0.00259964 to 0.00259964
Heightened Def Con from 0.00260329 to 0.00260329
Heightened Def Con from 0.00260797 to 0.00260797
Heightened Def Con from 0.00261162 to 0.00261162
Heightened Def Con from 0.0026163 to 0.0026163
Heightened Def Con from 0.00262463 to 0.00262463
Heightened Def Con from 0.00262828 to 0.00262828
Heightened Def Con from 0.00262828 to 0.00262828
Heightened Def Con from 0.00263609 to 0.00263609
Heightened Def Con from 0.00264129 to 0.00264129
Heightened Def Con from 0.00264442 to 0.00264443
Heightened Def Con from 0.00264493 to 0.00264494
Heightened Def Con from 0.00264494 to 0.00264494
Heightened Def Con from 0.00264962 to 0.00264962
Heightened Def Con from 0.00265275 to 0.00265275
Heightened Def Con from 0.00265743 to 0.00265743
Heightened Def Con from 0.00265794 to 0.00265794
Heightened Def Con from 0.00266627 to 0.00266627
Heightened Def Con from 0.00266992 to 0.00266992
Heightened Def Con from 0.00267409 to 0.00267409
Heightened Def Con from 0.0026746 to 0.0026746
Heightened Def Con from 0.00267826 to 0.00267826
Heightened Def Con from 0.00268293 to 0.00268293
Heightened Def Con from 0.00268607 to 0.00268607
Heightened Def Con from 0.00268659 to 0.00268659
Heightened Def Con from 0.00268659 to 0.00268659
Heightened Def Con from 0.00269075 to 0.00269075
Heightened Def Con from 0.00269126 to 0.00269126
Heightened Def Con from 0.00269492 to 0.00269492
Heightened Def Con from 0.00269492 to 0.00269492
Heightened Def Con from 0.00269908 to 0.00269909
Heightened Def Con from 0.00269959 to 0.00269959
Heightened Def Con from 0.00270325 to 0.00270325
Heightened Def Con from 0.00270741 to 0.00270741
Heightened Def Con from 0.00270792 to 0.00270792
Heightened Def Con from 0.00271106 to 0.00271106
Heightened Def Con from 0.00271158 to 0.00271158
Heightened Def Con from 0.00271625 to 0.00271625
Heightened Def Con from 0.00271991 to 0.00271991
Heightened Def Con from 0.00271991 to 0.00271991
Heightened Def Con from 0.00272458 to 0.00272458
Heightened Def Con from 0.00272823 to 0.00272823
Heightened Def Con from 0.0027324 to 0.0027324
Heightened Def Con from 0.00273291 to 0.00273291
Heightened Def Con from 0.00273291 to 0.00273291
Heightened Def Con from 0.00273291 to 0.00273291
Heightened Def Con from 0.00273657 to 0.00273657
Heightened Def Con from 0.00273657 to 0.00273657
Heightened Def Con from 0.0027449 to 0.0027449
Heightened Def Con from 0.00274906 to 0.00274906
Heightened Def Con from 0.00274957 to 0.00274958
Heightened Def Con from 0.0027527 to 0.0027527
Heightened Def Con from 0.00275323 to 0.00275323
Heightened Def Con from 0.00275739 to 0.00275739
Heightened Def Con from 0.0027579 to 0.0027579
Heightened Def Con from 0.0027579 to 0.0027579
Heightened Def Con from 0.00276104 to 0.00276105
Heightened Def Con from 0.00276155 to 0.00276155
Heightened Def Con from 0.00276155 to 0.00276155
Heightened Def Con from 0.00276623 to 0.00276623
Heightened Def Con from 0.00276937 to 0.00276937
Heightened Def Con from 0.00276989 to 0.00276989
Heightened Def Con from 0.00277406 to 0.00277406
Heightened Def Con from 0.00277457 to 0.00277457
Heightened Def Con from 0.00277771 to 0.00277771
Heightened Def Con from 0.00277822 to 0.00277822
Heightened Def Con from 0.00277822 to 0.00277822
Heightened Def Con from 0.00278289 to 0.00278289
Heightened Def Con from 0.00278603 to 0.00278603
Heightened Def Con from 0.00278654 to 0.00278654
Heightened Def Con from 0.00278654 to 0.00278655
Heightened Def Con from 0.00279122 to 0.00279123
Heightened Def Con from 0.00279436 to 0.00279436
Heightened Def Con from 0.00279487 to 0.00279488
Heightened Def Con from 0.00279904 to 0.00279904
Heightened Def Con from 0.00279956 to 0.00279956
Heightened Def Con from 0.00280321 to 0.00280321
Heightened Def Con from 0.00280321 to 0.00280321
Heightened Def Con from 0.00280789 to 0.00280789
Heightened Def Con from 0.00281153 to 0.00281153
Heightened Def Con from 0.00281153 to 0.00281154
Heightened Def Con from 0.00281622 to 0.00281622
Heightened Def Con from 0.00281935 to 0.00281936
Heightened Def Con from 0.00281987 to 0.00281987
Heightened Def Con from 0.00282454 to 0.00282454
Heightened Def Con from 0.00282819 to 0.00282819
Heightened Def Con from 0.00282819 to 0.0028282
Heightened Def Con from 0.00283287 to 0.00283287
Heightened Def Con from 0.00283602 to 0.00283602
Heightened Def Con from 0.00283652 to 0.00283652
Heightened Def Con from 0.00283652 to 0.00283652
Heightened Def Con from 0.00284121 to 0.00284121
Heightened Def Con from 0.00284486 to 0.00284486
Heightened Def Con from 0.00284902 to 0.00284902
Heightened Def Con from 0.00284954 to 0.00284954
Heightened Def Con from 0.00284954 to 0.00284954
Heightened Def Con from 0.00284954 to 0.00284954
Heightened Def Con from 0.00285319 to 0.00285319
Heightened Def Con from 0.00285787 to 0.00285787
Heightened Def Con from 0.002861 to 0.00286101
Heightened Def Con from 0.00286152 to 0.00286152
Heightened Def Con from 0.00286152 to 0.00286152
Heightened Def Con from 0.0028662 to 0.0028662
Heightened Def Con from 0.00286985 to 0.00286985
Heightened Def Con from 0.00286985 to 0.00286985
Heightened Def Con from 0.00287402 to 0.00287402
Heightened Def Con from 0.00287453 to 0.00287453
Heightened Def Con from 0.00287766 to 0.00287766
Heightened Def Con from 0.00287818 to 0.00287818
Heightened Def Con from 0.00287818 to 0.00287818
Heightened Def Con from 0.00288286 to 0.00288286
Heightened Def Con from 0.00288599 to 0.00288599
Heightened Def Con from 0.00288651 to 0.00288651
Heightened Def Con from 0.00289118 to 0.00289118
Heightened Def Con from 0.00289432 to 0.00289432
Heightened Def Con from 0.00289484 to 0.00289484
Heightened Def Con from 0.00289484 to 0.00289484
Heightened Def Con from 0.002899 to 0.002899
Heightened Def Con from 0.00289951 to 0.00289952
Heightened Def Con from 0.00290316 to 0.00290316
Heightened Def Con from 0.00290316 to 0.00290316
Heightened Def Con from 0.00290785 to 0.00290785
Heightened Def Con from 0.00291098 to 0.00291099
Heightened Def Con from 0.00291149 to 0.00291149
Heightened Def Con from 0.00291149 to 0.00291149
Heightened Def Con from 0.00291566 to 0.00291566
Heightened Def Con from 0.00291617 to 0.00291617
Heightened Def Con from 0.00291983 to 0.00291983
Heightened Def Con from 0.00291983 to 0.00291983
Heightened Def Con from 0.00292399 to 0.00292399
Heightened Def Con from 0.0029245 to 0.0029245
Heightened Def Con from 0.00292816 to 0.00292816
Heightened Def Con from 0.00293283 to 0.00293283
Heightened Def Con from 0.00293597 to 0.00293597
Heightened Def Con from 0.00293649 to 0.00293649
Heightened Def Con from 0.00294117 to 0.00294117
Heightened Def Con from 0.00294117 to 0.00294117
Heightened Def Con from 0.00294482 to 0.00294482
Heightened Def Con from 0.00294482 to 0.00294482
Heightened Def Con from 0.00294898 to 0.00294898
Heightened Def Con from 0.0029495 to 0.0029495
Heightened Def Con from 0.00295248 to 0.00295248
Heightened Def Con from 0.00295315 to 0.00295315
Heightened Def Con from 0.00295315 to 0.00295315
Heightened Def Con from 0.00295732 to 0.00295732
Heightened Def Con from 0.00295783 to 0.00295783
Heightened Def Con from 0.00296148 to 0.00296148
Heightened Def Con from 0.00296148 to 0.00296148
Heightened Def Con from 0.00296565 to 0.00296565
Heightened Def Con from 0.00296616 to 0.00296616
Heightened Def Con from 0.0029693 to 0.00296931
Heightened Def Con from 0.00296981 to 0.00296981
Heightened Def Con from 0.00296981 to 0.00296981
Heightened Def Con from 0.00297449 to 0.00297449
Heightened Def Con from 0.00297814 to 0.00297814
Heightened Def Con from 0.00298647 to 0.00298647
Heightened Def Con from 0.00298647 to 0.00298647
Heightened Def Con from 0.00299114 to 0.00299114
Heightened Def Con from 0.00299479 to 0.00299479
Heightened Def Con from 0.00299479 to 0.00299479
Heightened Def Con from 0.00299948 to 0.00299948
Heightened Def Con from 0.00299948 to 0.00299948
Heightened Def Con from 0.00300312 to 0.00300312
Heightened Def Con from 0.00300781 to 0.00300781
Heightened Def Con from 0.00301613 to 0.00301614
Heightened Def Con from 0.00301978 to 0.00301978
Heightened Def Con from 0.00301978 to 0.00301978
Heightened Def Con from 0.00302446 to 0.00302446
Heightened Def Con from 0.00302761 to 0.00302761
Heightened Def Con from 0.00302811 to 0.00302811
Heightened Def Con from 0.00302811 to 0.00302811
Heightened Def Con from 0.00303228 to 0.00303228
Heightened Def Con from 0.00303279 to 0.00303279
Heightened Def Con from 0.00303644 to 0.00303644
Heightened Def Con from 0.00304061 to 0.00304061
Heightened Def Con from 0.00304112 to 0.00304112
Heightened Def Con from 0.00304478 to 0.00304478
Heightened Def Con from 0.00304478 to 0.00304478
Heightened Def Con from 0.00304894 to 0.00304894
Heightened Def Con from 0.00304945 to 0.00304945
Heightened Def Con from 0.00305259 to 0.0030526
Heightened Def Con from 0.00305311 to 0.00305311
Heightened Def Con from 0.00305727 to 0.00305727
Heightened Def Con from 0.00305779 to 0.00305779
Heightened Def Con from 0.00306144 to 0.00306144
Heightened Def Con from 0.00306611 to 0.00306612
Heightened Def Con from 0.00307444 to 0.00307445
Heightened Def Con from 0.00307809 to 0.00307809
Heightened Def Con from 0.00307809 to 0.00307809
Heightened Def Con from 0.00308277 to 0.00308277
Heightened Def Con from 0.00308642 to 0.00308642
Heightened Def Con from 0.00308642 to 0.00308643
Heightened Def Con from 0.00309059 to 0.0030906
Heightened Def Con from 0.00309111 to 0.00309111
Heightened Def Con from 0.00309424 to 0.00309425
Heightened Def Con from 0.00309476 to 0.00309476
Heightened Def Con from 0.00309476 to 0.00309476
Heightened Def Con from 0.00309944 to 0.00309944
Heightened Def Con from 0.00309944 to 0.00309944
Heightened Def Con from 0.00310258 to 0.00310259
Heightened Def Con from 0.00310309 to 0.00310309
Heightened Def Con from 0.00310309 to 0.00310309
Heightened Def Con from 0.00310309 to 0.00310309
Heightened Def Con from 0.0031109 to 0.0031109
Heightened Def Con from 0.00311141 to 0.00311141
Heightened Def Con from 0.0031161 to 0.0031161
Heightened Def Con from 0.00311975 to 0.00311975
Heightened Def Con from 0.00311975 to 0.00311975
Heightened Def Con from 0.00312391 to 0.00312392
Heightened Def Con from 0.00312443 to 0.00312443
Heightened Def Con from 0.00312756 to 0.00312757
Heightened Def Con from 0.00313225 to 0.00313225
Heightened Def Con from 0.0031359 to 0.0031359
Heightened Def Con from 0.00313641 to 0.00313641
Heightened Def Con from 0.00313641 to 0.00313641
Heightened Def Con from 0.00314056 to 0.00314056
Heightened Def Con from 0.00314108 to 0.00314108
Heightened Def Con from 0.00314422 to 0.00314422
Heightened Def Con from 0.00314474 to 0.00314474
Heightened Def Con from 0.00314474 to 0.00314474
Heightened Def Con from 0.00315306 to 0.00315306
Heightened Def Con from 0.00315306 to 0.00315307
Heightened Def Con from 0.00315775 to 0.00315775
Heightened Def Con from 0.00316088 to 0.00316089
Heightened Def Con from 0.0031614 to 0.0031614
Heightened Def Con from 0.00316557 to 0.00316557
Heightened Def Con from 0.00316608 to 0.00316608
Heightened Def Con from 0.00316973 to 0.00316973
Heightened Def Con from 0.00316973 to 0.00316973
Heightened Def Con from 0.00317441 to 0.00317441
Heightened Def Con from 0.00317441 to 0.00317441
Heightened Def Con from 0.00317806 to 0.00317806
Heightened Def Con from 0.00318221 to 0.00318221
Heightened Def Con from 0.00318273 to 0.00318273
Heightened Def Con from 0.00318273 to 0.00318273
Heightened Def Con from 0.00318639 to 0.00318639
Heightened Def Con from 0.00318639 to 0.00318639
Heightened Def Con from 0.00319107 to 0.00319107
Heightened Def Con from 0.00319472 to 0.00319472
Heightened Def Con from 0.00319889 to 0.00319889
Heightened Def Con from 0.00320304 to 0.00320304
Heightened Def Con from 0.00320304 to 0.00320305
Heightened Def Con from 0.00320772 to 0.00320772
Heightened Def Con from 0.00320772 to 0.00320772
Heightened Def Con from 0.00321087 to 0.00321087
Heightened Def Con from 0.00321138 to 0.00321138
Heightened Def Con from 0.00321606 to 0.00321606
Heightened Def Con from 0.0032197 to 0.00321971
Heightened Def Con from 0.00321971 to 0.00321971
Heightened Def Con from 0.00322438 to 0.00322438
Heightened Def Con from 0.00322803 to 0.00322803
Heightened Def Con from 0.00322803 to 0.00322803
Heightened Def Con from 0.00323272 to 0.00323272
Heightened Def Con from 0.00323637 to 0.00323637
Heightened Def Con from 0.00323637 to 0.00323637
Heightened Def Con from 0.00324105 to 0.00324105
Heightened Def Con from 0.00324417 to 0.00324417
Heightened Def Con from 0.0032447 to 0.0032447
Heightened Def Con from 0.0032447 to 0.0032447
Heightened Def Con from 0.00324937 to 0.00324937
Heightened Def Con from 0.00325251 to 0.00325251
Heightened Def Con from 0.00325303 to 0.00325303
Heightened Def Con from 0.00325303 to 0.00325303
Heightened Def Con from 0.0032572 to 0.0032572
Heightened Def Con from 0.0032577 to 0.0032577
Heightened Def Con from 0.00326135 to 0.00326135
Heightened Def Con from 0.00326135 to 0.00326136
Heightened Def Con from 0.00326604 to 0.00326604
Heightened Def Con from 0.00326901 to 0.00326902
Heightened Def Con from 0.00326968 to 0.00326969
Heightened Def Con from 0.00327436 to 0.00327437
Heightened Def Con from 0.0032775 to 0.0032775
Heightened Def Con from 0.00327802 to 0.00327802
Heightened Def Con from 0.00327802 to 0.00327802
Heightened Def Con from 0.00328269 to 0.00328269
Heightened Def Con from 0.00328635 to 0.00328635
Heightened Def Con from 0.00328635 to 0.00328635
Heightened Def Con from 0.00329102 to 0.00329102
Heightened Def Con from 0.00329415 to 0.00329416
Heightened Def Con from 0.00329467 to 0.00329468
Heightened Def Con from 0.00329468 to 0.00329468
Heightened Def Con from 0.00329935 to 0.00329935
Heightened Def Con from 0.00329936 to 0.00329936
Heightened Def Con from 0.00330249 to 0.00330249
Heightened Def Con from 0.003303 to 0.003303
Heightened Def Con from 0.00330718 to 0.00330718
Heightened Def Con from 0.00330768 to 0.00330768
Heightened Def Con from 0.00331082 to 0.00331082
Heightened Def Con from 0.00331133 to 0.00331133
Heightened Def Con from 0.0033155 to 0.0033155
Heightened Def Con from 0.00331601 to 0.00331601
Heightened Def Con from 0.00331915 to 0.00331915
Heightened Def Con from 0.00331967 to 0.00331967
Heightened Def Con from 0.00332435 to 0.00332435
Heightened Def Con from 0.00332748 to 0.00332748
Heightened Def Con from 0.00332799 to 0.00332799
Heightened Def Con from 0.00332799 to 0.00332799
Heightened Def Con from 0.00333267 to 0.00333267
Heightened Def Con from 0.00333566 to 0.00333566
Heightened Def Con from 0.00333632 to 0.00333632
Heightened Def Con from 0.00333632 to 0.00333632
Heightened Def Con from 0.00334101 to 0.00334101
Heightened Def Con from 0.00334414 to 0.00334414
Heightened Def Con from 0.00334882 to 0.00334882
Heightened Def Con from 0.00334934 to 0.00334934
Heightened Def Con from 0.00335247 to 0.00335247
Heightened Def Con from 0.00335299 to 0.00335299
Heightened Def Con from 0.00335299 to 0.00335299
Heightened Def Con from 0.00335767 to 0.00335767
Heightened Def Con from 0.0033608 to 0.0033608
Heightened Def Con from 0.00336132 to 0.00336132
Heightened Def Con from 0.003366 to 0.003366
Heightened Def Con from 0.00336965 to 0.00336965
Heightened Def Con from 0.00336965 to 0.00336965
Heightened Def Con from 0.00337432 to 0.00337433
Heightened Def Con from 0.00337798 to 0.00337798
Heightened Def Con from 0.00337798 to 0.00337798
Heightened Def Con from 0.00338265 to 0.00338266
Heightened Def Con from 0.00338579 to 0.0033858
Heightened Def Con from 0.0033863 to 0.0033863
Heightened Def Con from 0.0033863 to 0.0033863
Heightened Def Con from 0.00339098 to 0.00339098
Heightened Def Con from 0.00339412 to 0.00339412
Heightened Def Con from 0.00339464 to 0.00339464
Heightened Def Con from 0.00339932 to 0.00339932
Heightened Def Con from 0.00340244 to 0.00340245
Heightened Def Con from 0.00340297 to 0.00340297
Heightened Def Con from 0.00340765 to 0.00340765
Heightened Def Con from 0.00341078 to 0.00341078
Heightened Def Con from 0.0034113 to 0.0034113
Heightened Def Con from 0.00341597 to 0.00341597
Heightened Def Con from 0.00341962 to 0.00341962
Heightened Def Con from 0.00342379 to 0.00342379
Heightened Def Con from 0.0034243 to 0.0034243
Heightened Def Con from 0.00342745 to 0.00342745
Heightened Def Con from 0.00343211 to 0.00343211
Heightened Def Con from 0.00343263 to 0.00343263
Heightened Def Con from 0.00343577 to 0.00343578
Heightened Def Con from 0.00343629 to 0.00343629
Heightened Def Con from 0.00343629 to 0.00343629
Heightened Def Con from 0.00344046 to 0.00344046
Heightened Def Con from 0.00344096 to 0.00344096
Heightened Def Con from 0.00344096 to 0.00344096
Heightened Def Con from 0.00344096 to 0.00344096
Heightened Def Con from 0.0034441 to 0.0034441
Heightened Def Con from 0.00344462 to 0.00344462
Heightened Def Con from 0.00344462 to 0.00344462
Heightened Def Con from 0.00345243 to 0.00345243
Heightened Def Con from 0.00345295 to 0.00345295
Heightened Def Con from 0.00346127 to 0.00346127
Heightened Def Con from 0.00346127 to 0.00346127
Heightened Def Con from 0.00346543 to 0.00346543
Heightened Def Con from 0.00346595 to 0.00346595
Heightened Def Con from 0.00346961 to 0.00346961
Heightened Def Con from 0.00347378 to 0.00347378
Heightened Def Con from 0.00347429 to 0.00347429
Heightened Def Con from 0.00347793 to 0.00347794
Heightened Def Con from 0.00347794 to 0.00347794
Heightened Def Con from 0.00348209 to 0.00348209
Heightened Def Con from 0.00348261 to 0.00348261
Heightened Def Con from 0.00348627 to 0.00348627
Heightened Def Con from 0.00348627 to 0.00348627
Heightened Def Con from 0.00349043 to 0.00349043
Heightened Def Con from 0.00349094 to 0.00349094
Heightened Def Con from 0.00349459 to 0.00349459
Heightened Def Con from 0.00349459 to 0.00349459
Heightened Def Con from 0.00349876 to 0.00349876
Heightened Def Con from 0.00349927 to 0.00349927
Heightened Def Con from 0.00350241 to 0.00350241
Heightened Def Con from 0.00350293 to 0.00350293
Heightened Def Con from 0.00350293 to 0.00350293
Heightened Def Con from 0.0035071 to 0.0035071
Heightened Def Con from 0.00350761 to 0.00350761
Heightened Def Con from 0.00351074 to 0.00351074
Heightened Def Con from 0.00351125 to 0.00351126
Heightened Def Con from 0.00351126 to 0.00351126
Heightened Def Con from 0.00351593 to 0.00351594
Heightened Def Con from 0.00351907 to 0.00351907
Heightened Def Con from 0.00351959 to 0.00351959
Heightened Def Con from 0.00352375 to 0.00352375
Heightened Def Con from 0.00352426 to 0.00352427
Heightened Def Con from 0.00352791 to 0.00352792
Heightened Def Con from 0.00353209 to 0.00353209
Heightened Def Con from 0.0035326 to 0.0035326
Heightened Def Con from 0.00353625 to 0.00353625
Heightened Def Con from 0.00353625 to 0.00353625
Heightened Def Con from 0.00354041 to 0.00354042
Heightened Def Con from 0.00354093 to 0.00354093
Heightened Def Con from 0.00354458 to 0.00354458
Heightened Def Con from 0.00354925 to 0.00354925
Heightened Def Con from 0.0035524 to 0.0035524
Heightened Def Con from 0.00355291 to 0.00355291
Heightened Def Con from 0.00355759 to 0.00355759
Heightened Def Con from 0.00356072 to 0.00356072
Heightened Def Con from 0.00356124 to 0.00356124
Heightened Def Con from 0.0035654 to 0.0035654
Heightened Def Con from 0.00356591 to 0.00356591
Heightened Def Con from 0.00356957 to 0.00356957
Heightened Def Con from 0.00356957 to 0.00356957
Heightened Def Con from 0.00357424 to 0.00357424
Heightened Def Con from 0.0035779 to 0.0035779
Heightened Def Con from 0.0035779 to 0.0035779
Heightened Def Con from 0.00358258 to 0.00358258
Heightened Def Con from 0.00358571 to 0.00358571
Heightened Def Con from 0.00358622 to 0.00358622
Heightened Def Con from 0.00358622 to 0.00358622
Heightened Def Con from 0.00359039 to 0.00359039
Heightened Def Con from 0.00359091 to 0.00359091
Heightened Def Con from 0.00359091 to 0.00359091
Heightened Def Con from 0.00359456 to 0.00359456
Heightened Def Con from 0.00359923 to 0.00359923
Heightened Def Con from 0.00360288 to 0.00360289
Heightened Def Con from 0.00360705 to 0.00360705
Heightened Def Con from 0.00360756 to 0.00360756
Heightened Def Con from 0.00360756 to 0.00360756
Heightened Def Con from 0.00361121 to 0.00361122
Heightened Def Con from 0.00361122 to 0.00361122
Heightened Def Con from 0.00361589 to 0.00361589
Heightened Def Con from 0.00361955 to 0.00361955
Heightened Def Con from 0.00362422 to 0.00362422
Heightened Def Con from 0.00362736 to 0.00362736
Heightened Def Con from 0.00362788 to 0.00362788
Heightened Def Con from 0.00362788 to 0.00362788
Heightened Def Con from 0.00363256 to 0.00363256
Heightened Def Con from 0.00363621 to 0.00363621
Heightened Def Con from 0.00363621 to 0.00363621
Heightened Def Con from 0.00364089 to 0.00364089
Heightened Def Con from 0.00364454 to 0.00364454
Heightened Def Con from 0.0036487 to 0.00364871
Heightened Def Con from 0.00364922 to 0.00364922
Heightened Def Con from 0.00364922 to 0.00364922
Heightened Def Con from 0.0036522 to 0.0036522
Heightened Def Con from 0.00365235 to 0.00365235
Heightened Def Con from 0.00365287 to 0.00365287
Heightened Def Con from 0.00365287 to 0.00365287
Heightened Def Con from 0.00365754 to 0.00365754
Heightened Def Con from 0.0036612 to 0.0036612
Heightened Def Con from 0.00366537 to 0.00366537
Heightened Def Con from 0.00366587 to 0.00366587
Heightened Def Con from 0.00366952 to 0.00366953
Heightened Def Con from 0.00367369 to 0.00367369
Heightened Def Con from 0.00367421 to 0.00367421
Heightened Def Con from 0.00367735 to 0.00367735
Heightened Def Con from 0.00367785 to 0.00367786
Heightened Def Con from 0.00368254 to 0.00368254
Heightened Def Con from 0.00368619 to 0.00368619
Heightened Def Con from 0.00369086 to 0.00369086
Heightened Def Con from 0.00369399 to 0.00369399
Heightened Def Con from 0.00369452 to 0.00369452
Heightened Def Con from 0.00369868 to 0.00369868
Heightened Def Con from 0.00369919 to 0.0036992
Heightened Def Con from 0.00370285 to 0.00370285
Heightened Def Con from 0.00370752 to 0.00370752
Heightened Def Con from 0.00371118 to 0.00371118
Heightened Def Con from 0.00371118 to 0.00371118
Heightened Def Con from 0.00371585 to 0.00371585
Heightened Def Con from 0.00371899 to 0.00371899
Heightened Def Con from 0.0037195 to 0.00371951
Heightened Def Con from 0.00372418 to 0.00372418
Heightened Def Con from 0.00372784 to 0.00372784
Heightened Def Con from 0.00372784 to 0.00372784
Heightened Def Con from 0.00373252 to 0.00373252
Heightened Def Con from 0.00374084 to 0.00374084
Heightened Def Con from 0.00374449 to 0.00374449
Heightened Def Con from 0.00374449 to 0.0037445
Heightened Def Con from 0.00374917 to 0.00374917
Heightened Def Con from 0.0037523 to 0.0037523
Heightened Def Con from 0.00375282 to 0.00375282
Heightened Def Con from 0.00376116 to 0.00376116
Heightened Def Con from 0.00376532 to 0.00376533
Heightened Def Con from 0.00376584 to 0.00376584
Heightened Def Con from 0.00376949 to 0.00376949
Heightened Def Con from 0.00377365 to 0.00377365
Heightened Def Con from 0.00377417 to 0.00377417
Heightened Def Con from 0.0037773 to 0.0037773
Heightened Def Con from 0.00377782 to 0.00377782
Heightened Def Con from 0.00377782 to 0.00377782
Heightened Def Con from 0.00378249 to 0.00378249
Heightened Def Con from 0.0037825 to 0.0037825
Heightened Def Con from 0.00378615 to 0.00378615
Heightened Def Con from 0.00379031 to 0.00379031
Heightened Def Con from 0.00379082 to 0.00379082
Heightened Def Con from 0.00379397 to 0.00379397
Heightened Def Con from 0.00379448 to 0.00379448
Heightened Def Con from 0.00379448 to 0.00379448
Heightened Def Con from 0.00379864 to 0.00379864
Heightened Def Con from 0.00379915 to 0.00379916
Heightened Def Con from 0.00380228 to 0.00380228
Heightened Def Con from 0.0038028 to 0.0038028
Heightened Def Con from 0.00380697 to 0.00380697
Heightened Def Con from 0.00380748 to 0.00380748
Heightened Def Con from 0.00381531 to 0.00381531
Heightened Def Con from 0.00381581 to 0.00381581
Heightened Def Con from 0.00381895 to 0.00381895
Heightened Def Con from 0.00381947 to 0.00381947
Heightened Def Con from 0.00381947 to 0.00381947
Heightened Def Con from 0.00382414 to 0.00382414
Heightened Def Con from 0.00382779 to 0.00382779
Heightened Def Con from 0.00382779 to 0.0038278
Heightened Def Con from 0.00383248 to 0.00383248
Heightened Def Con from 0.00383612 to 0.00383612
Heightened Def Con from 0.00383612 to 0.00383613
Heightened Def Con from 0.0038408 to 0.0038408
Heightened Def Con from 0.00384395 to 0.00384395
Heightened Def Con from 0.00384446 to 0.00384446
Heightened Def Con from 0.00384446 to 0.00384446
Heightened Def Con from 0.00385227 to 0.00385228
Heightened Def Con from 0.00385278 to 0.00385278
Heightened Def Con from 0.00385747 to 0.00385747
Heightened Def Con from 0.0038606 to 0.0038606
Heightened Def Con from 0.00386111 to 0.00386111
Heightened Def Con from 0.00386111 to 0.00386111
Heightened Def Con from 0.00386528 to 0.00386529
Heightened Def Con from 0.0038658 to 0.0038658
Heightened Def Con from 0.00386945 to 0.00386945
Heightened Def Con from 0.00386945 to 0.00386945
Heightened Def Con from 0.00387413 to 0.00387413
Heightened Def Con from 0.00387413 to 0.00387413
Heightened Def Con from 0.00387726 to 0.00387726
Heightened Def Con from 0.00387778 to 0.00387778
Heightened Def Con from 0.00388245 to 0.00388245
Heightened Def Con from 0.0038856 to 0.0038856
Heightened Def Con from 0.00388611 to 0.00388611
Heightened Def Con from 0.00389027 to 0.00389027
Heightened Def Con from 0.00389079 to 0.00389079
Heightened Def Con from 0.00389392 to 0.00389393
Heightened Def Con from 0.00389443 to 0.00389443
Heightened Def Con from 0.00389443 to 0.00389444
Heightened Def Con from 0.0038986 to 0.0038986
Heightened Def Con from 0.00389911 to 0.00389911
Heightened Def Con from 0.00390277 to 0.00390277
Heightened Def Con from 0.00390744 to 0.00390744
Heightened Def Con from 0.00391109 to 0.00391109
Heightened Def Con from 0.00391109 to 0.0039111
Heightened Def Con from 0.00391577 to 0.00391577
Heightened Def Con from 0.00391943 to 0.00391943
Heightened Def Con from 0.00391943 to 0.00391943
Heightened Def Con from 0.0039236 to 0.00392361
Heightened Def Con from 0.00392411 to 0.00392411
Heightened Def Con from 0.00392776 to 0.00392776
Heightened Def Con from 0.00393243 to 0.00393243
Heightened Def Con from 0.00393557 to 0.00393557
Heightened Def Con from 0.00393608 to 0.00393608
Heightened Def Con from 0.00393608 to 0.00393608
Heightened Def Con from 0.00394077 to 0.00394077
Heightened Def Con from 0.00394441 to 0.00394441
Heightened Def Con from 0.00394441 to 0.00394442
Heightened Def Con from 0.00395275 to 0.00395275
Heightened Def Con from 0.00395743 to 0.00395743
Heightened Def Con from 0.00396108 to 0.00396108
Heightened Def Con from 0.00396108 to 0.00396108
Heightened Def Con from 0.00396525 to 0.00396525
Heightened Def Con from 0.00396576 to 0.00396576
Heightened Def Con from 0.00396941 to 0.00396941
Heightened Def Con from 0.00397358 to 0.00397358
Heightened Def Con from 0.00397409 to 0.00397409
Heightened Def Con from 0.00397722 to 0.00397722
Heightened Def Con from 0.00397774 to 0.00397774
Heightened Def Con from 0.00397774 to 0.00397774
Heightened Def Con from 0.00398191 to 0.00398191
Heightened Def Con from 0.00398555 to 0.00398555
Heightened Def Con from 0.00399074 to 0.00399074
Heightened Def Con from 0.0039944 to 0.0039944
Heightened Def Con from 0.0039944 to 0.0039944
Heightened Def Con from 0.00399907 to 0.00399908
Heightened Def Con from 0.00400221 to 0.00400221
Heightened Def Con from 0.00400273 to 0.00400273
Heightened Def Con from 0.0040074 to 0.0040074
Heightened Def Con from 0.0040074 to 0.0040074
Heightened Def Con from 0.00401054 to 0.00401054
Heightened Def Con from 0.00401106 to 0.00401106
Heightened Def Con from 0.00401106 to 0.00401106
Heightened Def Con from 0.00401573 to 0.00401573
Heightened Def Con from 0.00401887 to 0.00401887
Heightened Def Con from 0.00401939 to 0.00401939
Heightened Def Con from 0.00401939 to 0.00401939
Heightened Def Con from 0.00402356 to 0.00402356
Heightened Def Con from 0.00402406 to 0.00402406
Heightened Def Con from 0.00402771 to 0.00402771
Heightened Def Con from 0.00403604 to 0.00403604
Heightened Def Con from 0.00403604 to 0.00403604
Heightened Def Con from 0.00404022 to 0.00404022
Heightened Def Con from 0.00404438 to 0.00404438
Heightened Def Con from 0.00404438 to 0.00404438
Heightened Def Con from 0.00404854 to 0.00404854
Heightened Def Con from 0.00404906 to 0.00404906
Heightened Def Con from 0.00405271 to 0.00405271
Heightened Def Con from 0.00405271 to 0.00405271
Heightened Def Con from 0.00405738 to 0.00405738
Heightened Def Con from 0.00406052 to 0.00406052
Heightened Def Con from 0.00406104 to 0.00406104
Heightened Def Con from 0.00406571 to 0.00406572
Heightened Def Con from 0.00406937 to 0.00406937
Heightened Def Con from 0.00407353 to 0.00407353
Heightened Def Con from 0.00407404 to 0.00407404
Heightened Def Con from 0.00407718 to 0.00407718
Heightened Def Con from 0.00407769 to 0.00407769
Heightened Def Con from 0.00407769 to 0.00407769
Heightened Def Con from 0.00408187 to 0.00408187
Heightened Def Con from 0.00408237 to 0.00408238
Heightened Def Con from 0.00408551 to 0.00408551
Heightened Def Con from 0.00408551 to 0.00408551
Heightened Def Con from 0.00408603 to 0.00408603
Heightened Def Con from 0.0040902 to 0.0040902
Heightened Def Con from 0.00409071 to 0.00409071
Heightened Def Con from 0.00409384 to 0.00409384
Heightened Def Con from 0.00409435 to 0.00409435
Heightened Def Con from 0.00409435 to 0.00409435
Heightened Def Con from 0.00409904 to 0.00409904
Heightened Def Con from 0.00410268 to 0.00410269
Heightened Def Con from 0.00410736 to 0.00410736
Heightened Def Con from 0.0041105 to 0.0041105
Heightened Def Con from 0.00411102 to 0.00411102
Heightened Def Con from 0.00411102 to 0.00411102
Heightened Def Con from 0.0041157 to 0.0041157
Heightened Def Con from 0.00411935 to 0.00411935
Heightened Def Con from 0.00412352 to 0.00412353
Heightened Def Con from 0.00412403 to 0.00412403
Heightened Def Con from 0.00412716 to 0.00412716
Heightened Def Con from 0.00412768 to 0.00412768
Heightened Def Con from 0.00412768 to 0.00412768
Heightened Def Con from 0.00413185 to 0.00413185
Heightened Def Con from 0.00413236 to 0.00413236
Heightened Def Con from 0.00413549 to 0.00413549
Heightened Def Con from 0.00413601 to 0.00413601
Heightened Def Con from 0.00413601 to 0.00413601
Heightened Def Con from 0.00414069 to 0.00414069
Heightened Def Con from 0.00414433 to 0.00414433
Heightened Def Con from 0.00414433 to 0.00414433
Heightened Def Con from 0.00414902 to 0.00414902
Heightened Def Con from 0.00415215 to 0.00415215
Heightened Def Con from 0.00415267 to 0.00415267
Heightened Def Con from 0.004161 to 0.004161
Heightened Def Con from 0.00416567 to 0.00416567
Heightened Def Con from 0.00416881 to 0.00416881
Heightened Def Con from 0.00416881 to 0.00416881
Heightened Def Con from 0.00417401 to 0.00417401
Heightened Def Con from 0.00417698 to 0.00417699
Heightened Def Con from 0.00417714 to 0.00417715
Heightened Def Con from 0.00417765 to 0.00417766
Heightened Def Con from 0.00417766 to 0.00417766
Heightened Def Con from 0.00418182 to 0.00418182
Heightened Def Con from 0.00418233 to 0.00418233
Heightened Def Con from 0.00418547 to 0.00418547
Heightened Def Con from 0.00418599 to 0.00418599
Heightened Def Con from 0.00418599 to 0.00418599
Heightened Def Con from 0.00419016 to 0.00419016
Heightened Def Con from 0.00419067 to 0.00419067
Heightened Def Con from 0.00419381 to 0.00419382
Heightened Def Con from 0.00419432 to 0.00419432
Heightened Def Con from 0.00419848 to 0.00419849
Heightened Def Con from 0.00419899 to 0.00419899
Heightened Def Con from 0.00420265 to 0.00420265
Heightened Def Con from 0.00420733 to 0.00420733
Heightened Def Con from 0.00421046 to 0.00421046
Heightened Def Con from 0.00421098 to 0.00421098
Heightened Def Con from 0.00421514 to 0.00421515
Heightened Def Con from 0.00421566 to 0.00421566
Heightened Def Con from 0.00421566 to 0.00421566
Heightened Def Con from 0.00421931 to 0.00421931
Heightened Def Con from 0.00421931 to 0.00421931
Heightened Def Con from 0.00422398 to 0.00422398
Heightened Def Con from 0.00422398 to 0.00422398
Heightened Def Con from 0.00422764 to 0.00422764
Heightened Def Con from 0.00422764 to 0.00422764
Heightened Def Con from 0.00423232 to 0.00423232
Heightened Def Con from 0.00423597 to 0.00423597
Heightened Def Con from 0.00424013 to 0.00424014
Heightened Def Con from 0.00424064 to 0.00424064
Heightened Def Con from 0.00424064 to 0.00424064
Heightened Def Con from 0.00424378 to 0.00424379
Heightened Def Con from 0.0042443 to 0.0042443
Heightened Def Con from 0.0042443 to 0.0042443
Heightened Def Con from 0.00424898 to 0.00424898
Heightened Def Con from 0.00425262 to 0.00425262
Heightened Def Con from 0.00425262 to 0.00425262
Heightened Def Con from 0.00425679 to 0.00425679
Heightened Def Con from 0.00425731 to 0.00425731
Heightened Def Con from 0.00426044 to 0.00426045
Heightened Def Con from 0.00426095 to 0.00426096
Heightened Def Con from 0.00426513 to 0.00426513
Heightened Def Con from 0.00426563 to 0.00426563
Heightened Def Con from 0.00426876 to 0.00426876
Heightened Def Con from 0.00426928 to 0.00426928
Heightened Def Con from 0.00427397 to 0.00427397
Heightened Def Con from 0.00427397 to 0.00427397
Heightened Def Con from 0.00427761 to 0.00427761
Heightened Def Con from 0.00427761 to 0.00427761
Heightened Def Con from 0.00428178 to 0.00428178
Heightened Def Con from 0.00428229 to 0.00428229
Heightened Def Con from 0.00428229 to 0.00428229
Heightened Def Con from 0.00428229 to 0.00428229
Heightened Def Con from 0.00428542 to 0.00428543
Heightened Def Con from 0.00428595 to 0.00428595
Heightened Def Con from 0.00428595 to 0.00428595
Heightened Def Con from 0.00429062 to 0.00429062
Heightened Def Con from 0.00429377 to 0.00429377
Heightened Def Con from 0.00429428 to 0.00429428
Heightened Def Con from 0.00429896 to 0.00429896
Heightened Def Con from 0.00429896 to 0.00429896
Heightened Def Con from 0.0043026 to 0.0043026
Heightened Def Con from 0.0043026 to 0.00430261
Heightened Def Con from 0.00430729 to 0.00430729
Heightened Def Con from 0.00430729 to 0.00430729
Heightened Def Con from 0.00431093 to 0.00431093
Heightened Def Con from 0.00431093 to 0.00431093
Heightened Def Con from 0.00431561 to 0.00431561
Heightened Def Con from 0.00431927 to 0.00431927
Heightened Def Con from 0.00432394 to 0.00432394
Heightened Def Con from 0.00432708 to 0.00432708
Heightened Def Con from 0.00432759 to 0.0043276
Heightened Def Con from 0.0043276 to 0.0043276
Heightened Def Con from 0.00433227 to 0.00433228
Heightened Def Con from 0.00433541 to 0.00433541
Heightened Def Con from 0.00433592 to 0.00433592
Heightened Def Con from 0.00433592 to 0.00433592
Heightened Def Con from 0.00433592 to 0.00433592
Heightened Def Con from 0.0043401 to 0.0043401
Heightened Def Con from 0.00434061 to 0.00434061
Heightened Def Con from 0.00434374 to 0.00434374
Heightened Def Con from 0.00434426 to 0.00434426
Heightened Def Con from 0.00434894 to 0.00434894
Heightened Def Con from 0.00435207 to 0.00435208
Heightened Def Con from 0.00435258 to 0.00435258
Heightened Def Con from 0.00435258 to 0.00435258
Heightened Def Con from 0.00435675 to 0.00435676
Heightened Def Con from 0.00435727 to 0.00435727
Heightened Def Con from 0.00436039 to 0.0043604
Heightened Def Con from 0.00436092 to 0.00436092
Heightened Def Con from 0.00436559 to 0.0043656
Heightened Def Con from 0.00436874 to 0.00436874
Heightened Def Con from 0.00436924 to 0.00436925
Heightened Def Con from 0.00436925 to 0.00436925
Heightened Def Con from 0.00437392 to 0.00437392
Heightened Def Con from 0.00437392 to 0.00437392
Heightened Def Con from 0.00437757 to 0.00437757
Heightened Def Con from 0.00437757 to 0.00437757
Heightened Def Con from 0.00438591 to 0.00438591
Heightened Def Con from 0.00439008 to 0.00439009
Heightened Def Con from 0.00439059 to 0.00439059
Heightened Def Con from 0.00439372 to 0.00439373
Heightened Def Con from 0.00439423 to 0.00439423
Heightened Def Con from 0.00439423 to 0.00439423
Heightened Def Con from 0.00439839 to 0.00439839
Heightened Def Con from 0.00439891 to 0.00439891
Heightened Def Con from 0.00440205 to 0.00440205
Heightened Def Con from 0.00440256 to 0.00440256
Heightened Def Con from 0.00440256 to 0.00440256
Heightened Def Con from 0.00441038 to 0.00441039
Heightened Def Con from 0.0044109 to 0.0044109
Heightened Def Con from 0.00441506 to 0.00441507
Heightened Def Con from 0.00441558 to 0.00441558
Heightened Def Con from 0.00441923 to 0.00441923
Heightened Def Con from 0.00441923 to 0.00441923
Heightened Def Con from 0.00442339 to 0.0044234
Heightened Def Con from 0.00442391 to 0.00442391
Heightened Def Con from 0.00442756 to 0.00442756
Heightened Def Con from 0.00443173 to 0.00443173
Heightened Def Con from 0.00443224 to 0.00443224
Heightened Def Con from 0.00443589 to 0.00443589
Heightened Def Con from 0.00443589 to 0.00443589
Heightened Def Con from 0.00444057 to 0.00444057
Heightened Def Con from 0.00444422 to 0.00444422
Heightened Def Con from 0.00444422 to 0.00444422
Heightened Def Con from 0.0044567 to 0.0044567
Heightened Def Con from 0.00445722 to 0.00445722
Heightened Def Con from 0.00446087 to 0.00446087
Heightened Def Con from 0.00446087 to 0.00446087
Heightened Def Con from 0.00446556 to 0.00446556
Heightened Def Con from 0.0044687 to 0.0044687
Heightened Def Con from 0.0044692 to 0.0044692
Heightened Def Con from 0.0044692 to 0.00446921
Heightened Def Con from 0.00447389 to 0.00447389
Heightened Def Con from 0.00447389 to 0.00447389
Heightened Def Con from 0.00447703 to 0.00447703
Heightened Def Con from 0.00447754 to 0.00447754
Heightened Def Con from 0.00447754 to 0.00447754
Heightened Def Con from 0.00448222 to 0.00448222
Heightened Def Con from 0.00448587 to 0.00448587
Heightened Def Con from 0.00448587 to 0.00448587
Heightened Def Con from 0.00449054 to 0.00449054
Heightened Def Con from 0.00449369 to 0.00449369
Heightened Def Con from 0.00449419 to 0.00449419
Heightened Def Con from 0.00449419 to 0.0044942
Heightened Def Con from 0.00449888 to 0.00449888
Heightened Def Con from 0.00450253 to 0.00450253
Heightened Def Con from 0.0045067 to 0.0045067
Heightened Def Con from 0.0045072 to 0.00450721
Heightened Def Con from 0.00451553 to 0.00451554
Heightened Def Con from 0.00451919 to 0.00451919
Heightened Def Con from 0.00451919 to 0.00451919
Heightened Def Con from 0.00452387 to 0.00452387
Heightened Def Con from 0.004527 to 0.004527
Heightened Def Con from 0.00452751 to 0.00452751
Heightened Def Con from 0.00453168 to 0.00453168
Heightened Def Con from 0.00453219 to 0.0045322
Heightened Def Con from 0.00453533 to 0.00453533
Heightened Def Con from 0.00453585 to 0.00453585
Heightened Def Con from 0.00453585 to 0.00453585
Heightened Def Con from 0.00454052 to 0.00454052
Heightened Def Con from 0.00454417 to 0.00454417
Heightened Def Con from 0.00454834 to 0.00454834
Heightened Def Con from 0.00454886 to 0.00454886
Heightened Def Con from 0.00455251 to 0.00455251
Heightened Def Con from 0.00455719 to 0.00455719
Heightened Def Con from 0.00456016 to 0.00456017
Heightened Def Con from 0.00456083 to 0.00456083
Heightened Def Con from 0.00456551 to 0.00456551
Heightened Def Con from 0.00456917 to 0.00456917
Heightened Def Con from 0.00457384 to 0.00457384
Heightened Def Con from 0.00457698 to 0.00457698
Heightened Def Con from 0.0045775 to 0.0045775
Heightened Def Con from 0.0045775 to 0.0045775
Heightened Def Con from 0.00458166 to 0.00458166
Heightened Def Con from 0.00458218 to 0.00458218
Heightened Def Con from 0.00458583 to 0.00458583
Heightened Def Con from 0.00458583 to 0.00458583
Heightened Def Con from 0.00459 to 0.00459
Heightened Def Con from 0.00459051 to 0.00459051
Heightened Def Con from 0.00459365 to 0.00459365
Heightened Def Con from 0.00459416 to 0.00459416
Heightened Def Con from 0.00459884 to 0.00459884
Heightened Def Con from 0.00460248 to 0.00460248
Heightened Def Con from 0.00460248 to 0.00460249
Heightened Def Con from 0.00460665 to 0.00460665
Heightened Def Con from 0.00460717 to 0.00460717
Heightened Def Con from 0.00461498 to 0.00461498
Heightened Def Con from 0.0046155 to 0.0046155
Heightened Def Con from 0.00461915 to 0.00461915
Heightened Def Con from 0.00461915 to 0.00461915
Heightened Def Con from 0.00462331 to 0.00462331
Heightened Def Con from 0.00462383 to 0.00462383
Heightened Def Con from 0.00462383 to 0.00462383
Heightened Def Con from 0.00462697 to 0.00462697
Heightened Def Con from 0.00462747 to 0.00462747
Heightened Def Con from 0.00462747 to 0.00462747
Heightened Def Con from 0.00463216 to 0.00463216
Heightened Def Con from 0.00463513 to 0.00463514
Heightened Def Con from 0.0046358 to 0.0046358
Heightened Def Con from 0.00463581 to 0.00463581
Heightened Def Con from 0.00464049 to 0.00464049
Heightened Def Con from 0.00464414 to 0.00464414
Heightened Def Con from 0.00464881 to 0.00464882
Heightened Def Con from 0.00465195 to 0.00465196
Heightened Def Con from 0.00465247 to 0.00465247
Heightened Def Con from 0.00465247 to 0.00465247
Heightened Def Con from 0.00465714 to 0.00465714
Heightened Def Con from 0.00465714 to 0.00465714
Heightened Def Con from 0.00466079 to 0.00466079
Heightened Def Con from 0.00466079 to 0.0046608
Heightened Def Con from 0.00466547 to 0.00466547
Heightened Def Con from 0.00466912 to 0.00466912
Heightened Def Con from 0.00466912 to 0.00466912
Heightened Def Con from 0.00467329 to 0.00467329
Heightened Def Con from 0.0046738 to 0.0046738
Heightened Def Con from 0.00467746 to 0.00467746
Heightened Def Con from 0.00467746 to 0.00467746
Heightened Def Con from 0.00468214 to 0.00468214
Heightened Def Con from 0.00468527 to 0.00468527
Heightened Def Con from 0.00468579 to 0.00468579
Heightened Def Con from 0.00468579 to 0.00468579
Heightened Def Con from 0.00469046 to 0.00469046
Heightened Def Con from 0.00469411 to 0.00469412
Heightened Def Con from 0.0046988 to 0.0046988
Heightened Def Con from 0.00470712 to 0.00470712
Heightened Def Con from 0.00471026 to 0.00471026
Heightened Def Con from 0.00471078 to 0.00471078
Heightened Def Con from 0.00471546 to 0.00471546
Heightened Def Con from 0.00471911 to 0.00471911
Heightened Def Con from 0.00472378 to 0.00472379
Heightened Def Con from 0.00472691 to 0.00472692
Heightened Def Con from 0.00472743 to 0.00472744
Heightened Def Con from 0.00472744 to 0.00472744
Heightened Def Con from 0.0047316 to 0.0047316
Heightened Def Con from 0.00473525 to 0.00473525
Heightened Def Con from 0.00473576 to 0.00473577
Heightened Def Con from 0.00473577 to 0.00473577
Heightened Def Con from 0.00473993 to 0.00473993
Heightened Def Con from 0.00474044 to 0.00474044
Heightened Def Con from 0.00474342 to 0.00474343
Heightened Def Con from 0.00474409 to 0.00474409
Heightened Def Con from 0.00474877 to 0.00474877
Heightened Def Con from 0.00475242 to 0.00475242
Heightened Def Con from 0.00475659 to 0.00475659
Heightened Def Con from 0.0047571 to 0.0047571
Heightened Def Con from 0.00476024 to 0.00476024
Heightened Def Con from 0.00476076 to 0.00476076
Heightened Def Con from 0.00476076 to 0.00476076
Heightened Def Con from 0.00476492 to 0.00476492
Heightened Def Con from 0.00476543 to 0.00476543
Heightened Def Con from 0.00476908 to 0.00476908
Heightened Def Con from 0.00477376 to 0.00477376
Heightened Def Con from 0.00477742 to 0.00477742
Heightened Def Con from 0.00478159 to 0.00478159
Heightened Def Con from 0.00478209 to 0.0047821
Heightened Def Con from 0.00478574 to 0.00478574
Heightened Def Con from 0.00478574 to 0.00478575
Heightened Def Con from 0.00478992 to 0.00478992
Heightened Def Con from 0.00479042 to 0.00479042
Heightened Def Con from 0.00479042 to 0.00479042
Heightened Def Con from 0.00479355 to 0.00479355
Heightened Def Con from 0.00479407 to 0.00479408
Heightened Def Con from 0.00479876 to 0.00479876
Heightened Def Con from 0.00480241 to 0.00480241
Heightened Def Con from 0.00481074 to 0.00481074
Heightened Def Con from 0.00481541 to 0.00481542
Heightened Def Con from 0.00481907 to 0.00481907
Heightened Def Con from 0.00482374 to 0.00482374
Heightened Def Con from 0.0048274 to 0.0048274
Heightened Def Con from 0.00483156 to 0.00483156
Heightened Def Con from 0.00483208 to 0.00483208
Heightened Def Con from 0.00483573 to 0.00483573
Heightened Def Con from 0.00483989 to 0.00483989
Heightened Def Con from 0.0048404 to 0.0048404
Heightened Def Con from 0.0048404 to 0.00484041
Heightened Def Con from 0.00484406 to 0.00484406
Heightened Def Con from 0.00484406 to 0.00484406
Heightened Def Con from 0.00484873 to 0.00484873
Heightened Def Con from 0.00484873 to 0.00484873
Heightened Def Con from 0.00485187 to 0.00485187
Heightened Def Con from 0.00485239 to 0.00485239
Heightened Def Con from 0.00485239 to 0.00485239
Heightened Def Con from 0.00485707 to 0.00485707
Heightened Def Con from 0.00486072 to 0.00486072
Heightened Def Con from 0.00486072 to 0.00486072
Heightened Def Con from 0.0048654 to 0.0048654
Heightened Def Con from 0.00486904 to 0.00486904
Heightened Def Con from 0.00486904 to 0.00486904
Heightened Def Con from 0.00487372 to 0.00487372
Heightened Def Con from 0.00487737 to 0.00487737
Heightened Def Con from 0.00487737 to 0.00487737
Heightened Def Con from 0.00488154 to 0.00488154
Heightened Def Con from 0.00488206 to 0.00488206
Heightened Def Con from 0.00488519 to 0.0048852
Heightened Def Con from 0.00488571 to 0.00488571
Heightened Def Con from 0.00488571 to 0.00488571
Heightened Def Con from 0.00488987 to 0.00488988
Heightened Def Con from 0.00489039 to 0.00489039
Heightened Def Con from 0.00489351 to 0.00489351
Heightened Def Con from 0.00489404 to 0.00489404
Heightened Def Con from 0.00489871 to 0.00489872
Heightened Def Con from 0.00490236 to 0.00490236
Heightened Def Con from 0.00490236 to 0.00490236
Heightened Def Con from 0.00490705 to 0.00490705
Heightened Def Con from 0.00491018 to 0.00491018
Heightened Def Con from 0.00491538 to 0.00491538
Heightened Def Con from 0.00491903 to 0.00491903
Heightened Def Con from 0.0049237 to 0.0049237
Heightened Def Con from 0.00492684 to 0.00492684
Heightened Def Con from 0.00492735 to 0.00492735
Heightened Def Con from 0.00492736 to 0.00492736
Heightened Def Con from 0.00493203 to 0.00493203
Heightened Def Con from 0.00493568 to 0.00493568
Heightened Def Con from 0.0049435 to 0.0049435
Heightened Def Con from 0.00494401 to 0.00494402
Heightened Def Con from 0.00494818 to 0.00494818
Heightened Def Con from 0.0049487 to 0.0049487
Heightened Def Con from 0.00495184 to 0.00495184
Heightened Def Con from 0.00495235 to 0.00495235
Heightened Def Con from 0.00495651 to 0.00495652
Heightened Def Con from 0.00495703 to 0.00495703
Heightened Def Con from 0.00496016 to 0.00496017
Heightened Def Con from 0.00496067 to 0.00496067
Heightened Def Con from 0.00496535 to 0.00496535
Heightened Def Con from 0.00496901 to 0.00496901
Heightened Def Con from 0.00496901 to 0.00496902
Heightened Def Con from 0.00497368 to 0.00497368
Heightened Def Con from 0.00497683 to 0.00497683
Heightened Def Con from 0.00497734 to 0.00497734
Heightened Def Con from 0.00498149 to 0.00498149
Heightened Def Con from 0.00498201 to 0.00498201
Heightened Def Con from 0.00498566 to 0.00498566
Heightened Def Con from 0.00498566 to 0.00498566
Heightened Def Con from 0.00498984 to 0.00498984
Heightened Def Con from 0.00499035 to 0.00499035
Heightened Def Con from 0.00499348 to 0.00499348
Heightened Def Con from 0.004994 to 0.004994
Heightened Def Con from 0.004994 to 0.004994
Heightened Def Con from 0.00499816 to 0.00499816
Heightened Def Con from 0.00499868 to 0.00499868

Date: Thu Jun  5 11:58:15 2025
Total elapsed time: 1104.690 seconds.

tnom = 27
temp = 27
method = modified trap
totiter = 8723841
traniter = 8705605
tranpoints = 2116338
accept = 1632055
rejected = 486629
matrix size = 289
fillins = 137
solver = Normal
Avg thread counts: 1.0/1.0/1.0/1.0
Matrix Compiler1: 15.18 KB object code size  11.7/7.9/[3.0]
Matrix Compiler2: 20.69 KB object code size  7.5/11.5/[7.0]

