Circuit: * C:\Users\Euge Etcheverry\OneDrive\Escritorio\FIUBA\Taller de Circuitos\Checkpoint4\buck_driver.asc

Instance "m:u1:_gd_template:_ho_stage:_ho_pmos": Length shorter than recommended for a level 1 MOSFET.
Instance "m:u1:_gd_template:_ho_stage:_ho_nmos": Length shorter than recommended for a level 1 MOSFET.
Instance "m:u1:_gd_template:_lo_stage:_lo_pmos": Length shorter than recommended for a level 1 MOSFET.
Instance "m:u1:_gd_template:_lo_stage:_lo_nmos": Length shorter than recommended for a level 1 MOSFET.
Direct Newton iteration failed to find .op point.  (Use ".option noopiter" to skip.)
Starting Gmin stepping
Gmin = 10
Gmin = 1.07374
vernier = 0.5
vernier = 0.25
vernier = 0.125
vernier = 0.0625
Gmin = 0.995033
vernier = 0.03125
vernier = 0.015625
vernier = 0.0078125
vernier = 0.00390625
vernier = 0.00195312
vernier = 0.000976562
Gmin = 1.00275
vernier = 0.00130208
Gmin = 0.999895
vernier = 0.000651042
vernier = 0.000488281
Gmin = 0
Gmin stepping failed

Starting source stepping with srcstepmethod=0
Source Step = 3.0303%
Source Step = 33.3333%
Source Step = 50.1894%
vernier = 0.015625
Source Step = 50.0237%
Starting source stepping with srcstepmethod=1
Source Step = 3.0303%
Source Step = 33.3333%
Source Step = 50.1894%
vernier = 0.015625
Source stepping failed

Pseudo Transient failed in finding the operating point at 5.625 µs.
Trouble finding operating point....skipping operating point for Transient analysis.
Changing Tseed to 1e-11
Changing Tseed to 1e-13
to 2e-13
Heightened Def Con from 6.71794e-07 to 6.72669e-07
Heightened Def Con from 3.46872e-06 to 3.46886e-06
Heightened Def Con from 3.46891e-06 to 3.47591e-06
Heightened Def Con from 3.97427e-06 to 3.97552e-06
Heightened Def Con from 3.97559e-06 to 3.97647e-06
Heightened Def Con from 8.49198e-06 to 8.4926e-06
Heightened Def Con from 9.00286e-06 to 9.00373e-06
Heightened Def Con from 1.17804e-05 to 1.17822e-05
Heightened Def Con from 1.23026e-05 to 1.23034e-05
Heightened Def Con from 1.23035e-05 to 1.23044e-05
Heightened Def Con from 1.68123e-05 to 1.68129e-05
Heightened Def Con from 1.73333e-05 to 1.73341e-05
Heightened Def Con from 2.06397e-05 to 2.06404e-05
Heightened Def Con from 2.06405e-05 to 2.06414e-05
Heightened Def Con from 2.51559e-05 to 2.51565e-05
Heightened Def Con from 2.56671e-05 to 2.5668e-05
Heightened Def Con from 3.39926e-05 to 3.39926e-05
Heightened Def Con from 3.39933e-05 to 3.39942e-05
Heightened Def Con from 3.72988e-05 to 3.73e-05
Heightened Def Con from 4.1806e-05 to 4.18066e-05
Heightened Def Con from 4.23244e-05 to 4.23253e-05
Heightened Def Con from 5.06565e-05 to 5.06574e-05
Heightened Def Con from 5.34479e-05 to 5.34559e-05
Heightened Def Con from 5.39602e-05 to 5.3961e-05
Heightened Def Con from 5.84632e-05 to 5.84638e-05
Heightened Def Con from 5.89807e-05 to 5.89807e-05
Heightened Def Con from 5.89813e-05 to 5.89822e-05
Heightened Def Con from 6.22846e-05 to 6.22855e-05
Heightened Def Con from 6.68028e-05 to 6.68034e-05
Heightened Def Con from 6.73132e-05 to 6.73141e-05
Heightened Def Con from 7.56425e-05 to 7.56434e-05
Heightened Def Con from 8.34574e-05 to 8.34581e-05
Heightened Def Con from 8.39763e-05 to 8.39772e-05
Heightened Def Con from 8.6762e-05 to 8.67637e-05
Heightened Def Con from 8.72733e-05 to 8.72741e-05
Heightened Def Con from 9.23029e-05 to 9.23037e-05
Heightened Def Con from 9.56059e-05 to 9.56068e-05
Heightened Def Con from 0.000100633 to 0.000100633
Heightened Def Con from 0.000100633 to 0.000100634
Heightened Def Con from 0.000103933 to 0.000103934
Heightened Def Con from 0.000108961 to 0.000108962
Heightened Def Con from 0.000112268 to 0.000112269
Heightened Def Con from 0.000117294 to 0.000117295
Heightened Def Con from 0.000125626 to 0.000125627
Heightened Def Con from 0.000128921 to 0.000128922
Heightened Def Con from 0.000133951 to 0.000133951
Heightened Def Con from 0.000133951 to 0.000133952
Heightened Def Con from 0.000137252 to 0.000137252
Heightened Def Con from 0.000142283 to 0.000142283
Heightened Def Con from 0.000142284 to 0.000142284
Heightened Def Con from 0.000145586 to 0.000145587
Heightened Def Con from 0.000150613 to 0.000150614
Heightened Def Con from 0.000158426 to 0.000158426
Heightened Def Con from 0.000158948 to 0.000158948
Heightened Def Con from 0.000162246 to 0.000162247
Heightened Def Con from 0.000162247 to 0.000162248
Heightened Def Con from 0.000175607 to 0.000175607
Heightened Def Con from 0.000175608 to 0.000175609
Heightened Def Con from 0.000178395 to 0.000178397
Heightened Def Con from 0.000178907 to 0.000178908
Heightened Def Con from 0.000183425 to 0.000183426
Heightened Def Con from 0.000183938 to 0.000183938
Heightened Def Con from 0.000183939 to 0.000183939
Heightened Def Con from 0.000187238 to 0.000187239
Heightened Def Con from 0.00019557 to 0.00019557
Heightened Def Con from 0.00019557 to 0.000195571
Heightened Def Con from 0.00019992 to 0.000199928
Heightened Def Con from 0.000200083 to 0.000200084
Heightened Def Con from 0.000203895 to 0.000203896
Heightened Def Con from 0.000203896 to 0.000203897
Heightened Def Con from 0.000208252 to 0.000208258
Heightened Def Con from 0.000208411 to 0.000208411
Heightened Def Con from 0.000208923 to 0.000208924
Heightened Def Con from 0.0002117 to 0.0002117
Heightened Def Con from 0.000212223 to 0.000212223
Heightened Def Con from 0.000216743 to 0.000216744
Heightened Def Con from 0.000217258 to 0.000217259
Heightened Def Con from 0.000220558 to 0.000220559
Heightened Def Con from 0.000220559 to 0.00022056
Heightened Def Con from 0.000228886 to 0.000228887
Heightened Def Con from 0.000233412 to 0.000233413
Heightened Def Con from 0.000237218 to 0.000237223
Heightened Def Con from 0.000241575 to 0.00024158
Heightened Def Con from 0.000241734 to 0.000241734
Heightened Def Con from 0.000242248 to 0.000242249
Heightened Def Con from 0.000245032 to 0.000245032
Heightened Def Con from 0.000245545 to 0.000245545
Heightened Def Con from 0.000250577 to 0.000250577
Heightened Def Con from 0.000258904 to 0.000258909
Heightened Def Con from 0.00026221 to 0.00026221
Heightened Def Con from 0.000267236 to 0.000267236
Heightened Def Con from 0.000267236 to 0.000267236
Heightened Def Con from 0.000267236 to 0.000267237
Heightened Def Con from 0.000270023 to 0.000270024
Heightened Def Con from 0.000270537 to 0.000270538
Heightened Def Con from 0.000274898 to 0.000274902
Heightened Def Con from 0.000275054 to 0.000275055
Heightened Def Con from 0.000275567 to 0.000275567
Heightened Def Con from 0.000278867 to 0.000278868
Heightened Def Con from 0.000278868 to 0.000278868
Heightened Def Con from 0.000283898 to 0.0002839
Heightened Def Con from 0.000283901 to 0.000283902
Heightened Def Con from 0.000287197 to 0.000287197
Heightened Def Con from 0.000291558 to 0.000291562
Heightened Def Con from 0.000292229 to 0.000292229
Heightened Def Con from 0.000295014 to 0.000295015
Heightened Def Con from 0.000300557 to 0.000300557
Heightened Def Con from 0.000300557 to 0.000300558
Heightened Def Con from 0.000303335 to 0.000303343
Heightened Def Con from 0.000303862 to 0.000303863
Heightened Def Con from 0.000308214 to 0.000308219
Heightened Def Con from 0.000312184 to 0.000312184
Heightened Def Con from 0.000312185 to 0.000312186
Heightened Def Con from 0.000312186 to 0.000312186
Heightened Def Con from 0.000317213 to 0.000317218
Heightened Def Con from 0.000320515 to 0.000320516
Heightened Def Con from 0.000320517 to 0.000320517
Heightened Def Con from 0.000325543 to 0.000325544
Heightened Def Con from 0.000328331 to 0.000328331
Heightened Def Con from 0.000337175 to 0.000337177
Heightened Def Con from 0.000337177 to 0.000337178
Heightened Def Con from 0.000342201 to 0.000342201
Heightened Def Con from 0.000342201 to 0.000342202
Heightened Def Con from 0.000345504 to 0.000345504
Heightened Def Con from 0.000345505 to 0.000345505
Heightened Def Con from 0.000350536 to 0.000350536
Heightened Def Con from 0.00035331 to 0.00035331
Heightened Def Con from 0.000353832 to 0.000353833
Heightened Def Con from 0.000353833 to 0.000353838
Heightened Def Con from 0.000362169 to 0.00036217
Heightened Def Con from 0.000367196 to 0.000367196
Heightened Def Con from 0.000370498 to 0.000370498
Heightened Def Con from 0.000370499 to 0.000370499
Heightened Def Con from 0.000375528 to 0.000375529
Heightened Def Con from 0.000378828 to 0.000378829
Heightened Def Con from 0.000378829 to 0.00037883
Heightened Def Con from 0.000383855 to 0.000383855
Heightened Def Con from 0.000386645 to 0.000386647
Heightened Def Con from 0.000387157 to 0.000387158
Heightened Def Con from 0.000392176 to 0.000392177
Heightened Def Con from 0.000395489 to 0.00039549
Heightened Def Con from 0.000399997 to 0.000400008
Heightened Def Con from 0.000400523 to 0.000400524
Heightened Def Con from 0.00040382 to 0.000403821
Heightened Def Con from 0.000403822 to 0.000403822
Heightened Def Con from 0.000408324 to 0.000408325
Heightened Def Con from 0.000408844 to 0.000408845
Heightened Def Con from 0.000411627 to 0.000411629
Heightened Def Con from 0.00041215 to 0.000412155
Heightened Def Con from 0.000417176 to 0.000417177
Heightened Def Con from 0.000419961 to 0.000419962
Heightened Def Con from 0.000420473 to 0.000420474
Heightened Def Con from 0.000420474 to 0.000420475
Heightened Def Con from 0.000424992 to 0.000424993
Heightened Def Con from 0.000425504 to 0.000425505
Heightened Def Con from 0.000428809 to 0.00042881
Heightened Def Con from 0.000433326 to 0.000433326
Heightened Def Con from 0.000433839 to 0.00043384
Heightened Def Con from 0.000436622 to 0.000436624
Heightened Def Con from 0.000442164 to 0.000442165
Heightened Def Con from 0.000444955 to 0.000444955
Heightened Def Con from 0.00044547 to 0.000445471
Heightened Def Con from 0.000450492 to 0.000450493
Heightened Def Con from 0.000453798 to 0.000453799
Heightened Def Con from 0.000458822 to 0.000458823
Heightened Def Con from 0.000461614 to 0.000461614
Heightened Def Con from 0.000462129 to 0.000462129
Heightened Def Con from 0.000466646 to 0.000466647
Heightened Def Con from 0.000467155 to 0.000467155
Heightened Def Con from 0.000467155 to 0.000467156
Heightened Def Con from 0.000469938 to 0.00046994
Heightened Def Con from 0.000470463 to 0.000470464
Heightened Def Con from 0.000475488 to 0.000475488
Heightened Def Con from 0.000478792 to 0.000478793
Heightened Def Con from 0.000483818 to 0.000483818
Heightened Def Con from 0.00048712 to 0.000487125
Heightened Def Con from 0.000492143 to 0.000492144
Heightened Def Con from 0.000499962 to 0.000499962
Heightened Def Con from 0.000500471 to 0.000500471
Heightened Def Con from 0.000500472 to 0.000500473
Heightened Def Con from 0.00050378 to 0.000503781
Heightened Def Con from 0.000508281 to 0.000508282
Heightened Def Con from 0.0005088 to 0.0005088
Heightened Def Con from 0.0005088 to 0.000508801
Heightened Def Con from 0.000511592 to 0.000511592
Heightened Def Con from 0.000512107 to 0.000512108
Heightened Def Con from 0.000512108 to 0.000512109
Heightened Def Con from 0.000517134 to 0.000517134
Heightened Def Con from 0.00051992 to 0.000519922
Heightened Def Con from 0.000520432 to 0.000520433
Heightened Def Con from 0.000520433 to 0.000520434
Heightened Def Con from 0.000525468 to 0.000525469
Heightened Def Con from 0.000528254 to 0.000528254
Heightened Def Con from 0.000528772 to 0.000528773
Heightened Def Con from 0.000533284 to 0.000533284
Heightened Def Con from 0.000533797 to 0.000533798
Heightened Def Con from 0.000536588 to 0.00053659
Heightened Def Con from 0.000537094 to 0.000537095
Heightened Def Con from 0.000537095 to 0.000537101
Heightened Def Con from 0.000542128 to 0.000542129
Heightened Def Con from 0.000545424 to 0.000545425
Heightened Def Con from 0.000545425 to 0.000545426
Heightened Def Con from 0.000550456 to 0.000550457
Heightened Def Con from 0.000553756 to 0.000553757
Heightened Def Con from 0.000553758 to 0.000553758
Heightened Def Con from 0.000558785 to 0.000558785
Heightened Def Con from 0.000558785 to 0.000558786
Heightened Def Con from 0.00056209 to 0.00056209
Heightened Def Con from 0.00056209 to 0.000562091
Heightened Def Con from 0.0005666 to 0.0005666
Heightened Def Con from 0.000567119 to 0.000567119
Heightened Def Con from 0.000569903 to 0.000569905
Heightened Def Con from 0.000570416 to 0.000570417
Heightened Def Con from 0.000570417 to 0.000570418
Heightened Def Con from 0.000578746 to 0.000578747
Heightened Def Con from 0.000578748 to 0.000578753
Heightened Def Con from 0.00058327 to 0.000583281
Heightened Def Con from 0.000587073 to 0.000587073
Heightened Def Con from 0.000592104 to 0.000592105
Heightened Def Con from 0.000594896 to 0.000594896
Heightened Def Con from 0.000595404 to 0.000595404
Heightened Def Con from 0.000595405 to 0.000595405
Heightened Def Con from 0.000599911 to 0.000599912
Heightened Def Con from 0.000600432 to 0.000600433
Heightened Def Con from 0.000603221 to 0.000603222
Heightened Def Con from 0.000603736 to 0.000603737
Heightened Def Con from 0.000608768 to 0.000608769
Heightened Def Con from 0.000611545 to 0.000611547
Heightened Def Con from 0.000612066 to 0.000612067
Heightened Def Con from 0.000612067 to 0.000612068
Heightened Def Con from 0.000616583 to 0.000616583
Heightened Def Con from 0.000617091 to 0.000617092
Heightened Def Con from 0.000619884 to 0.000619885
Heightened Def Con from 0.0006204 to 0.000620401
Heightened Def Con from 0.000620401 to 0.000620402
Heightened Def Con from 0.000624913 to 0.000624913
Heightened Def Con from 0.000625428 to 0.000625429
Heightened Def Con from 0.00062872 to 0.000628721
Heightened Def Con from 0.000628721 to 0.000628722
Heightened Def Con from 0.000633233 to 0.000633234
Heightened Def Con from 0.000633752 to 0.000633753
Heightened Def Con from 0.000636542 to 0.000636543
Heightened Def Con from 0.000637055 to 0.000637056
Heightened Def Con from 0.000637056 to 0.000637057
Heightened Def Con from 0.00064209 to 0.000642091
Heightened Def Con from 0.000645383 to 0.000645384
Heightened Def Con from 0.000645384 to 0.000645385
Heightened Def Con from 0.000649896 to 0.000649897
Heightened Def Con from 0.000650413 to 0.000650414
Heightened Def Con from 0.000653201 to 0.000653201
Heightened Def Con from 0.000653716 to 0.000653717
Heightened Def Con from 0.000653717 to 0.000653718
Heightened Def Con from 0.000658231 to 0.000658232
Heightened Def Con from 0.000662041 to 0.000662042
Heightened Def Con from 0.000662042 to 0.000662043
Heightened Def Con from 0.000666564 to 0.000666564
Heightened Def Con from 0.000667078 to 0.000667079
Heightened Def Con from 0.000670371 to 0.000670372
Heightened Def Con from 0.000670372 to 0.000670373
Heightened Def Con from 0.000678196 to 0.000678197
Heightened Def Con from 0.000678703 to 0.000678704
Heightened Def Con from 0.000678704 to 0.000678705
Heightened Def Con from 0.000683736 to 0.000683736
Heightened Def Con from 0.000687037 to 0.000687037
Heightened Def Con from 0.000687037 to 0.000687038
Heightened Def Con from 0.000691549 to 0.00069155
Heightened Def Con from 0.000694854 to 0.000694856
Heightened Def Con from 0.000695367 to 0.000695368
Heightened Def Con from 0.000700395 to 0.000700396
Heightened Def Con from 0.000703697 to 0.000703698
Heightened Def Con from 0.000708203 to 0.000708203
Heightened Def Con from 0.00070872 to 0.00070872
Heightened Def Con from 0.000708721 to 0.000708722
Heightened Def Con from 0.000712028 to 0.000712029
Heightened Def Con from 0.000717058 to 0.000717059
Heightened Def Con from 0.000720361 to 0.000720366
Heightened Def Con from 0.000725386 to 0.000725386
Heightened Def Con from 0.000725386 to 0.000725386
Heightened Def Con from 0.000728166 to 0.000728166
Heightened Def Con from 0.000728687 to 0.000728688
Heightened Def Con from 0.000728689 to 0.000728689
Heightened Def Con from 0.000733722 to 0.000733722
Heightened Def Con from 0.00073702 to 0.000737021
Heightened Def Con from 0.000742037 to 0.000742037
Heightened Def Con from 0.000742038 to 0.000742039
Heightened Def Con from 0.000745353 to 0.000745354
Heightened Def Con from 0.000750376 to 0.000750377
Heightened Def Con from 0.000753681 to 0.000753682
Heightened Def Con from 0.000758706 to 0.000758707
Heightened Def Con from 0.000762007 to 0.000762008
Heightened Def Con from 0.000762008 to 0.000762009
Heightened Def Con from 0.000769813 to 0.000769813
Heightened Def Con from 0.000770337 to 0.000770338
Heightened Def Con from 0.000774854 to 0.000774855
Heightened Def Con from 0.000775367 to 0.000775368
Heightened Def Con from 0.000778664 to 0.000778665
Heightened Def Con from 0.000783178 to 0.000783179
Heightened Def Con from 0.000783698 to 0.000783699
Heightened Def Con from 0.000786488 to 0.00078649
Heightened Def Con from 0.000786989 to 0.00078699
Heightened Def Con from 0.00078699 to 0.000786991
Heightened Def Con from 0.000792023 to 0.000792024
Heightened Def Con from 0.000794814 to 0.000794816
Heightened Def Con from 0.000800356 to 0.000800357
Heightened Def Con from 0.000803651 to 0.000803652
Heightened Def Con from 0.000808686 to 0.000808687
Heightened Def Con from 0.000811986 to 0.000811987
Heightened Def Con from 0.000811987 to 0.000811988
Heightened Def Con from 0.000817018 to 0.000817018
Heightened Def Con from 0.000820321 to 0.000820322
Heightened Def Con from 0.000824842 to 0.000824843
Heightened Def Con from 0.000825347 to 0.000825348
Heightened Def Con from 0.000828651 to 0.000828652
Heightened Def Con from 0.000836976 to 0.000836977
Heightened Def Con from 0.000836977 to 0.000836978
Heightened Def Con from 0.000842002 to 0.000842002
Heightened Def Con from 0.0008448 to 0.0008448
Heightened Def Con from 0.000850335 to 0.000850336
Heightened Def Con from 0.000853635 to 0.000853636
Heightened Def Con from 0.000858661 to 0.000858662
Heightened Def Con from 0.000861966 to 0.000861967
Heightened Def Con from 0.000866996 to 0.000866997
Heightened Def Con from 0.00087029 to 0.000870291
Heightened Def Con from 0.000870291 to 0.000870296
Heightened Def Con from 0.000875324 to 0.000875324
Heightened Def Con from 0.000883659 to 0.000883659
Heightened Def Con from 0.000886442 to 0.000886443
Heightened Def Con from 0.000891988 to 0.000891988
Heightened Def Con from 0.000891988 to 0.000891989
Heightened Def Con from 0.000900314 to 0.000900314
Heightened Def Con from 0.000903614 to 0.000903616
Heightened Def Con from 0.000903616 to 0.000903617
Heightened Def Con from 0.000908142 to 0.000908143
Heightened Def Con from 0.000908646 to 0.000908647
Heightened Def Con from 0.000911952 to 0.000911952
Heightened Def Con from 0.000916973 to 0.000916974
Heightened Def Con from 0.000920282 to 0.000920283
Heightened Def Con from 0.000925302 to 0.000925302
Heightened Def Con from 0.000928603 to 0.000928604
Heightened Def Con from 0.000928604 to 0.000928605
Heightened Def Con from 0.000933124 to 0.000933125
Heightened Def Con from 0.000936933 to 0.000936934
Heightened Def Con from 0.000936934 to 0.000936935
Heightened Def Con from 0.000941966 to 0.000941967
Heightened Def Con from 0.00094526 to 0.00094526
Heightened Def Con from 0.00094526 to 0.000945261
Heightened Def Con from 0.000950296 to 0.000950296
Heightened Def Con from 0.000950296 to 0.000950297
Heightened Def Con from 0.000953595 to 0.000953595
Heightened Def Con from 0.000953596 to 0.000953601
Heightened Def Con from 0.000958116 to 0.000958117
Heightened Def Con from 0.000958628 to 0.000958628
Heightened Def Con from 0.000958628 to 0.000958629
Heightened Def Con from 0.000961413 to 0.000961413
Heightened Def Con from 0.000961928 to 0.000961929
Heightened Def Con from 0.000961929 to 0.00096193
Heightened Def Con from 0.000966962 to 0.000966963
Heightened Def Con from 0.000970254 to 0.000970255
Heightened Def Con from 0.000970255 to 0.000970256
Heightened Def Con from 0.000975285 to 0.000975285
Heightened Def Con from 0.000978076 to 0.000978076
Heightened Def Con from 0.000978582 to 0.000978582
Heightened Def Con from 0.000983104 to 0.000983104
Heightened Def Con from 0.000986398 to 0.000986398
Heightened Def Con from 0.000986921 to 0.000986922
Heightened Def Con from 0.000986923 to 0.000986923
Heightened Def Con from 0.000991948 to 0.000991949
Heightened Def Con from 0.000995245 to 0.000995247
Heightened Def Con from 0.000995247 to 0.000995248
Heightened Def Con from 0.000999762 to 0.000999763
Heightened Def Con from 0.00100027 to 0.00100027
Heightened Def Con from 0.00100027 to 0.00100027
Heightened Def Con from 0.00100358 to 0.00100358
Heightened Def Con from 0.00100358 to 0.00100358
Heightened Def Con from 0.00100861 to 0.00100861
Heightened Def Con from 0.00101191 to 0.00101191
Heightened Def Con from 0.00101191 to 0.00101191
Heightened Def Con from 0.00101642 to 0.00101642
Heightened Def Con from 0.00101693 to 0.00101694
Heightened Def Con from 0.00102024 to 0.00102024
Heightened Def Con from 0.00102024 to 0.00102024
Heightened Def Con from 0.00102527 to 0.00102527
Heightened Def Con from 0.00102857 to 0.00102857
Heightened Def Con from 0.00102857 to 0.00102857
Heightened Def Con from 0.0010336 to 0.0010336
Heightened Def Con from 0.00103689 to 0.00103689
Heightened Def Con from 0.00104193 to 0.00104193
Heightened Def Con from 0.00104523 to 0.00104523
Heightened Def Con from 0.00104523 to 0.00104523
Heightened Def Con from 0.00104975 to 0.00104975
Heightened Def Con from 0.00105026 to 0.00105026
Heightened Def Con from 0.00105026 to 0.00105026
Heightened Def Con from 0.00105356 to 0.00105356
Heightened Def Con from 0.00105356 to 0.00105357
Heightened Def Con from 0.00105859 to 0.00105859
Heightened Def Con from 0.00106137 to 0.00106137
Heightened Def Con from 0.00106189 to 0.00106189
Heightened Def Con from 0.00106189 to 0.00106189
Heightened Def Con from 0.0010664 to 0.0010664
Heightened Def Con from 0.00106691 to 0.00106691
Heightened Def Con from 0.00107022 to 0.00107022
Heightened Def Con from 0.00107524 to 0.00107524
Heightened Def Con from 0.00107803 to 0.00107803
Heightened Def Con from 0.00107855 to 0.00107855
Heightened Def Con from 0.00108307 to 0.00108307
Heightened Def Con from 0.00108358 to 0.00108358
Heightened Def Con from 0.00108688 to 0.00108688
Heightened Def Con from 0.00108688 to 0.00108688
Heightened Def Con from 0.0010919 to 0.0010919
Heightened Def Con from 0.00109972 to 0.00109972
Heightened Def Con from 0.00110024 to 0.00110024
Heightened Def Con from 0.00110354 to 0.00110354
Heightened Def Con from 0.00110354 to 0.00110354
Heightened Def Con from 0.00110856 to 0.00110856
Heightened Def Con from 0.00111187 to 0.00111187
Heightened Def Con from 0.0011169 to 0.0011169
Heightened Def Con from 0.0011169 to 0.0011169
Heightened Def Con from 0.00111968 to 0.00111968
Heightened Def Con from 0.00112019 to 0.00112019
Heightened Def Con from 0.00112019 to 0.00112019
Heightened Def Con from 0.00112522 to 0.00112522
Heightened Def Con from 0.00112853 to 0.00112853
Heightened Def Con from 0.00112853 to 0.00112853
Heightened Def Con from 0.00113355 to 0.00113355
Heightened Def Con from 0.00113686 to 0.00113686
Heightened Def Con from 0.00114188 to 0.00114189
Heightened Def Con from 0.00114466 to 0.00114467
Heightened Def Con from 0.00114519 to 0.00114519
Heightened Def Con from 0.00114519 to 0.00114519
Heightened Def Con from 0.00115021 to 0.00115021
Heightened Def Con from 0.00115021 to 0.00115021
Heightened Def Con from 0.001153 to 0.001153
Heightened Def Con from 0.00115352 to 0.00115352
Heightened Def Con from 0.00115854 to 0.00115854
Heightened Def Con from 0.00115854 to 0.00115854
Heightened Def Con from 0.00115854 to 0.00115854
Heightened Def Con from 0.00116133 to 0.00116134
Heightened Def Con from 0.00116185 to 0.00116185
Heightened Def Con from 0.00116688 to 0.00116688
Heightened Def Con from 0.00116688 to 0.00116688
Heightened Def Con from 0.00116688 to 0.00116688
Heightened Def Con from 0.00117018 to 0.00117018
Heightened Def Con from 0.00117521 to 0.00117521
Heightened Def Con from 0.00117851 to 0.00117851
Heightened Def Con from 0.00117851 to 0.00117851
Heightened Def Con from 0.00118353 to 0.00118353
Heightened Def Con from 0.00118684 to 0.00118684
Heightened Def Con from 0.00118684 to 0.00118684
Heightened Def Con from 0.00119187 to 0.00119187
Heightened Def Con from 0.00119449 to 0.0011945
Heightened Def Con from 0.00119517 to 0.00119517
Heightened Def Con from 0.0012002 to 0.0012002
Heightened Def Con from 0.00120298 to 0.00120298
Heightened Def Con from 0.00120349 to 0.00120349
Heightened Def Con from 0.00120349 to 0.0012035
Heightened Def Con from 0.00120801 to 0.00120801
Heightened Def Con from 0.00120853 to 0.00120853
Heightened Def Con from 0.00121131 to 0.00121131
Heightened Def Con from 0.00121183 to 0.00121183
Heightened Def Con from 0.00121183 to 0.00121183
Heightened Def Con from 0.00121633 to 0.00121633
Heightened Def Con from 0.00121685 to 0.00121685
Heightened Def Con from 0.00121685 to 0.00121685
Heightened Def Con from 0.00121965 to 0.00121965
Heightened Def Con from 0.00122016 to 0.00122016
Heightened Def Con from 0.00122466 to 0.00122466
Heightened Def Con from 0.00122518 to 0.00122518
Heightened Def Con from 0.00122796 to 0.00122796
Heightened Def Con from 0.00122848 to 0.00122849
Heightened Def Con from 0.00122849 to 0.00122849
Heightened Def Con from 0.00123352 to 0.00123352
Heightened Def Con from 0.00123352 to 0.00123352
Heightened Def Con from 0.00123681 to 0.00123681
Heightened Def Con from 0.00123681 to 0.00123681
Heightened Def Con from 0.00124133 to 0.00124133
Heightened Def Con from 0.00124184 to 0.00124184
Heightened Def Con from 0.00124515 to 0.00124515
Heightened Def Con from 0.00124966 to 0.00124967
Heightened Def Con from 0.00125018 to 0.00125018
Heightened Def Con from 0.00125018 to 0.00125018
Heightened Def Con from 0.00125348 to 0.00125348
Heightened Def Con from 0.00125798 to 0.00125798
Heightened Def Con from 0.0012585 to 0.0012585
Heightened Def Con from 0.00126181 to 0.00126181
Heightened Def Con from 0.00126684 to 0.00126684
Heightened Def Con from 0.00126684 to 0.00126684
Heightened Def Con from 0.00126961 to 0.00126961
Heightened Def Con from 0.00127013 to 0.00127013
Heightened Def Con from 0.00127013 to 0.00127013
Heightened Def Con from 0.00127517 to 0.00127517
Heightened Def Con from 0.00127795 to 0.00127795
Heightened Def Con from 0.00127846 to 0.00127846
Heightened Def Con from 0.00127846 to 0.00127847
Heightened Def Con from 0.00128299 to 0.00128299
Heightened Def Con from 0.00128349 to 0.0012835
Heightened Def Con from 0.00128628 to 0.00128628
Heightened Def Con from 0.00128679 to 0.0012868
Heightened Def Con from 0.0012868 to 0.0012868
Heightened Def Con from 0.00129132 to 0.00129132
Heightened Def Con from 0.00129182 to 0.00129183
Heightened Def Con from 0.00129513 to 0.00129513
Heightened Def Con from 0.00129513 to 0.00129513
Heightened Def Con from 0.00130015 to 0.00130016
Heightened Def Con from 0.00130294 to 0.00130294
Heightened Def Con from 0.00130346 to 0.00130346
Heightened Def Con from 0.00130346 to 0.00130346
Heightened Def Con from 0.00130798 to 0.00130798
Heightened Def Con from 0.00131179 to 0.00131179
Heightened Def Con from 0.00131179 to 0.00131179
Heightened Def Con from 0.00131631 to 0.00131631
Heightened Def Con from 0.00131682 to 0.00131682
Heightened Def Con from 0.00132012 to 0.00132012
Heightened Def Con from 0.00132012 to 0.00132012
Heightened Def Con from 0.00132515 to 0.00132515
Heightened Def Con from 0.00132845 to 0.00132845
Heightened Def Con from 0.00133347 to 0.00133347
Heightened Def Con from 0.00133626 to 0.00133626
Heightened Def Con from 0.00133678 to 0.00133678
Heightened Def Con from 0.00133678 to 0.00133678
Heightened Def Con from 0.00134181 to 0.00134181
Heightened Def Con from 0.00134511 to 0.00134511
Heightened Def Con from 0.00134511 to 0.00134511
Heightened Def Con from 0.00134963 to 0.00134963
Heightened Def Con from 0.00135013 to 0.00135013
Heightened Def Con from 0.00135292 to 0.00135292
Heightened Def Con from 0.00135343 to 0.00135343
Heightened Def Con from 0.00135343 to 0.00135343
Heightened Def Con from 0.00135846 to 0.00135846
Heightened Def Con from 0.00136124 to 0.00136125
Heightened Def Con from 0.00136177 to 0.00136177
Heightened Def Con from 0.00136628 to 0.00136628
Heightened Def Con from 0.00136679 to 0.00136679
Heightened Def Con from 0.0013701 to 0.0013701
Heightened Def Con from 0.0013701 to 0.0013701
Heightened Def Con from 0.00137461 to 0.00137461
Heightened Def Con from 0.00137512 to 0.00137512
Heightened Def Con from 0.00137791 to 0.00137791
Heightened Def Con from 0.00137843 to 0.00137843
Heightened Def Con from 0.00137843 to 0.00137843
Heightened Def Con from 0.00138294 to 0.00138294
Heightened Def Con from 0.00138345 to 0.00138345
Heightened Def Con from 0.00138345 to 0.00138345
Heightened Def Con from 0.00138625 to 0.00138625
Heightened Def Con from 0.00138676 to 0.00138676
Heightened Def Con from 0.00139128 to 0.00139128
Heightened Def Con from 0.00139179 to 0.00139179
Heightened Def Con from 0.00140012 to 0.00140012
Heightened Def Con from 0.00140289 to 0.00140289
Heightened Def Con from 0.00140794 to 0.00140794
Heightened Def Con from 0.00140845 to 0.00140845
Heightened Def Con from 0.00140845 to 0.00140845
Heightened Def Con from 0.00141107 to 0.00141108
Heightened Def Con from 0.00141123 to 0.00141123
Heightened Def Con from 0.00141174 to 0.00141174
Heightened Def Con from 0.00141174 to 0.00141174
Heightened Def Con from 0.00141677 to 0.00141677
Heightened Def Con from 0.00141677 to 0.00141678
Heightened Def Con from 0.00142007 to 0.00142007
Heightened Def Con from 0.00142007 to 0.00142007
Heightened Def Con from 0.0014251 to 0.0014251
Heightened Def Con from 0.00142841 to 0.00142841
Heightened Def Con from 0.00142841 to 0.00142841
Heightened Def Con from 0.00143343 to 0.00143343
Heightened Def Con from 0.00143343 to 0.00143344
Heightened Def Con from 0.00143674 to 0.00143674
Heightened Def Con from 0.00143674 to 0.00143674
Heightened Def Con from 0.00144176 to 0.00144176
Heightened Def Con from 0.00144454 to 0.00144455
Heightened Def Con from 0.00144507 to 0.00144507
Heightened Def Con from 0.00144507 to 0.00144507
Heightened Def Con from 0.00145009 to 0.00145009
Heightened Def Con from 0.00145009 to 0.0014501
Heightened Def Con from 0.00145273 to 0.00145273
Heightened Def Con from 0.0014534 to 0.0014534
Heightened Def Con from 0.0014534 to 0.0014534
Heightened Def Con from 0.00145842 to 0.00145843
Heightened Def Con from 0.00146121 to 0.00146121
Heightened Def Con from 0.00146173 to 0.00146173
Heightened Def Con from 0.00146625 to 0.00146625
Heightened Def Con from 0.00146676 to 0.00146676
Heightened Def Con from 0.00146939 to 0.00146939
Heightened Def Con from 0.00147006 to 0.00147006
Heightened Def Con from 0.00147006 to 0.00147006
Heightened Def Con from 0.00147458 to 0.00147458
Heightened Def Con from 0.00147508 to 0.00147508
Heightened Def Con from 0.00147787 to 0.00147787
Heightened Def Con from 0.00147838 to 0.00147839
Heightened Def Con from 0.00147839 to 0.00147839
Heightened Def Con from 0.00148291 to 0.00148291
Heightened Def Con from 0.00148341 to 0.00148341
Heightened Def Con from 0.00148672 to 0.00148672
Heightened Def Con from 0.00149123 to 0.00149124
Heightened Def Con from 0.00149174 to 0.00149174
Heightened Def Con from 0.00149174 to 0.00149175
Heightened Def Con from 0.00149505 to 0.00149505
Heightened Def Con from 0.00149955 to 0.00149955
Heightened Def Con from 0.00150007 to 0.00150007
Heightened Def Con from 0.00150286 to 0.00150286
Heightened Def Con from 0.00150338 to 0.00150338
Heightened Def Con from 0.00150338 to 0.00150338
Heightened Def Con from 0.0015079 to 0.0015079
Heightened Def Con from 0.00150841 to 0.00150841
Heightened Def Con from 0.0015117 to 0.0015117
Heightened Def Con from 0.0015117 to 0.00151171
Heightened Def Con from 0.00151674 to 0.00151674
Heightened Def Con from 0.00151951 to 0.00151952
Heightened Def Con from 0.00152004 to 0.00152004
Heightened Def Con from 0.00152004 to 0.00152004
Heightened Def Con from 0.00152455 to 0.00152455
Heightened Def Con from 0.00152837 to 0.00152837
Heightened Def Con from 0.00153289 to 0.00153289
Heightened Def Con from 0.00153339 to 0.00153339
Heightened Def Con from 0.00153618 to 0.00153618
Heightened Def Con from 0.0015367 to 0.0015367
Heightened Def Con from 0.00154121 to 0.00154121
Heightened Def Con from 0.00154173 to 0.00154173
Heightened Def Con from 0.00154173 to 0.00154173
Heightened Def Con from 0.00154503 to 0.00154503
Heightened Def Con from 0.00154503 to 0.00154503
Heightened Def Con from 0.00154954 to 0.00154954
Heightened Def Con from 0.00155005 to 0.00155005
Heightened Def Con from 0.00155284 to 0.00155284
Heightened Def Con from 0.00155336 to 0.00155336
Heightened Def Con from 0.00155336 to 0.00155336
Heightened Def Con from 0.00155788 to 0.00155788
Heightened Def Con from 0.00155838 to 0.00155838
Heightened Def Con from 0.00156169 to 0.00156169
Heightened Def Con from 0.00156169 to 0.00156169
Heightened Def Con from 0.00156672 to 0.00156672
Heightened Def Con from 0.0015695 to 0.0015695
Heightened Def Con from 0.00157002 to 0.00157002
Heightened Def Con from 0.00157002 to 0.00157002
Heightened Def Con from 0.00157505 to 0.00157505
Heightened Def Con from 0.00157783 to 0.00157783
Heightened Def Con from 0.00157834 to 0.00157834
Heightened Def Con from 0.00157834 to 0.00157834
Heightened Def Con from 0.00158287 to 0.00158287
Heightened Def Con from 0.00158337 to 0.00158337
Heightened Def Con from 0.00158337 to 0.00158337
Heightened Def Con from 0.00158668 to 0.00158668
Heightened Def Con from 0.00158668 to 0.00158668
Heightened Def Con from 0.0015912 to 0.0015912
Heightened Def Con from 0.00159171 to 0.00159171
Heightened Def Con from 0.00159171 to 0.00159171
Heightened Def Con from 0.001595 to 0.001595
Heightened Def Con from 0.001595 to 0.001595
Heightened Def Con from 0.00160003 to 0.00160004
Heightened Def Con from 0.00160333 to 0.00160334
Heightened Def Con from 0.00160785 to 0.00160785
Heightened Def Con from 0.00160837 to 0.00160837
Heightened Def Con from 0.00161167 to 0.00161167
Heightened Def Con from 0.00161167 to 0.00161167
Heightened Def Con from 0.00161618 to 0.00161619
Heightened Def Con from 0.0016167 to 0.0016167
Heightened Def Con from 0.00161999 to 0.00161999
Heightened Def Con from 0.00162451 to 0.00162452
Heightened Def Con from 0.00162833 to 0.00162833
Heightened Def Con from 0.00163285 to 0.00163285
Heightened Def Con from 0.00163335 to 0.00163335
Heightened Def Con from 0.00163613 to 0.00163613
Heightened Def Con from 0.00163665 to 0.00163665
Heightened Def Con from 0.00163665 to 0.00163666
Heightened Def Con from 0.00164117 to 0.00164117
Heightened Def Con from 0.00164169 to 0.00164169
Heightened Def Con from 0.00164499 to 0.00164499
Heightened Def Con from 0.00164499 to 0.00164499
Heightened Def Con from 0.00165002 to 0.00165002
Heightened Def Con from 0.0016528 to 0.0016528
Heightened Def Con from 0.00165332 to 0.00165332
Heightened Def Con from 0.00165784 to 0.00165784
Heightened Def Con from 0.00165834 to 0.00165834
Heightened Def Con from 0.00166114 to 0.00166114
Heightened Def Con from 0.00166165 to 0.00166165
Heightened Def Con from 0.00166616 to 0.00166616
Heightened Def Con from 0.00166667 to 0.00166668
Heightened Def Con from 0.00166998 to 0.00166998
Heightened Def Con from 0.00167501 to 0.00167501
Heightened Def Con from 0.00167501 to 0.00167501
Heightened Def Con from 0.0016783 to 0.0016783
Heightened Def Con from 0.00168334 to 0.00168334
Heightened Def Con from 0.00168612 to 0.00168613
Heightened Def Con from 0.00168664 to 0.00168664
Heightened Def Con from 0.00169166 to 0.00169166
Heightened Def Con from 0.0016943 to 0.0016943
Heightened Def Con from 0.00169445 to 0.00169445
Heightened Def Con from 0.00169497 to 0.00169497
Heightened Def Con from 0.0017 to 0.0017
Heightened Def Con from 0.00170278 to 0.00170278
Heightened Def Con from 0.0017033 to 0.0017033
Heightened Def Con from 0.0017033 to 0.0017033
Heightened Def Con from 0.00170781 to 0.00170781
Heightened Def Con from 0.00170833 to 0.00170833
Heightened Def Con from 0.00170833 to 0.00170833
Heightened Def Con from 0.00171163 to 0.00171163
Heightened Def Con from 0.00171614 to 0.00171614
Heightened Def Con from 0.00171944 to 0.00171945
Heightened Def Con from 0.00171996 to 0.00171996
Heightened Def Con from 0.00171996 to 0.00171996
Heightened Def Con from 0.00172499 to 0.00172499
Heightened Def Con from 0.00172499 to 0.00172499
Heightened Def Con from 0.00172777 to 0.00172777
Heightened Def Con from 0.00172829 to 0.00172829
Heightened Def Con from 0.0017328 to 0.0017328
Heightened Def Con from 0.00173331 to 0.00173331
Heightened Def Con from 0.00173609 to 0.00173609
Heightened Def Con from 0.00173662 to 0.00173662
Heightened Def Con from 0.00173662 to 0.00173662
Heightened Def Con from 0.00174165 to 0.00174165
Heightened Def Con from 0.00174495 to 0.00174495
Heightened Def Con from 0.00174998 to 0.00174998
Heightened Def Con from 0.00175328 to 0.00175328
Heightened Def Con from 0.00175328 to 0.00175328
Heightened Def Con from 0.00175831 to 0.00175831
Heightened Def Con from 0.00176093 to 0.00176094
Heightened Def Con from 0.0017616 to 0.0017616
Heightened Def Con from 0.0017616 to 0.0017616
Heightened Def Con from 0.00176612 to 0.00176612
Heightened Def Con from 0.00176663 to 0.00176663
Heightened Def Con from 0.00176942 to 0.00176942
Heightened Def Con from 0.00176994 to 0.00176994
Heightened Def Con from 0.00176994 to 0.00176994
Heightened Def Con from 0.00177496 to 0.00177496
Heightened Def Con from 0.00177775 to 0.00177776
Heightened Def Con from 0.00177827 to 0.00177827
Heightened Def Con from 0.00177827 to 0.00177828
Heightened Def Con from 0.00178329 to 0.00178329
Heightened Def Con from 0.00178593 to 0.00178593
Heightened Def Con from 0.00178608 to 0.00178609
Heightened Def Con from 0.0017866 to 0.0017866
Heightened Def Con from 0.00179163 to 0.00179163
Heightened Def Con from 0.00179493 to 0.00179493
Heightened Def Con from 0.00179493 to 0.00179493
Heightened Def Con from 0.00179944 to 0.00179944
Heightened Def Con from 0.00179995 to 0.00179995
Heightened Def Con from 0.00179995 to 0.00179995
Heightened Def Con from 0.00180326 to 0.00180326
Heightened Def Con from 0.00180326 to 0.00180326
Heightened Def Con from 0.00180778 to 0.00180778
Heightened Def Con from 0.00180828 to 0.00180829
Heightened Def Con from 0.00181159 to 0.00181159
Heightened Def Con from 0.0018161 to 0.0018161
Heightened Def Con from 0.00181661 to 0.00181662
Heightened Def Con from 0.0018194 to 0.0018194
Heightened Def Con from 0.00181992 to 0.00181992
Heightened Def Con from 0.00181992 to 0.00181992
Heightened Def Con from 0.00182443 to 0.00182443
Heightened Def Con from 0.00182494 to 0.00182494
Heightened Def Con from 0.00182494 to 0.00182494
Heightened Def Con from 0.00182773 to 0.00182773
Heightened Def Con from 0.00182825 to 0.00182825
Heightened Def Con from 0.00183328 to 0.00183328
Heightened Def Con from 0.00183658 to 0.00183658
Heightened Def Con from 0.00184161 to 0.00184161
Heightened Def Con from 0.00184491 to 0.00184491
Heightened Def Con from 0.00184491 to 0.00184491
Heightened Def Con from 0.00184942 to 0.00184942
Heightened Def Con from 0.00184993 to 0.00184993
Heightened Def Con from 0.00184994 to 0.00184994
Heightened Def Con from 0.00185324 to 0.00185324
Heightened Def Con from 0.00185324 to 0.00185324
Heightened Def Con from 0.00185776 to 0.00185776
Heightened Def Con from 0.00185826 to 0.00185827
Heightened Def Con from 0.00186157 to 0.00186157
Heightened Def Con from 0.00186659 to 0.00186659
Heightened Def Con from 0.00186938 to 0.00186938
Heightened Def Con from 0.0018699 to 0.0018699
Heightened Def Con from 0.0018699 to 0.0018699
Heightened Def Con from 0.00187441 to 0.00187441
Heightened Def Con from 0.00187492 to 0.00187492
Heightened Def Con from 0.00187492 to 0.00187492
Heightened Def Con from 0.00187822 to 0.00187822
Heightened Def Con from 0.00187822 to 0.00187823
Heightened Def Con from 0.00188274 to 0.00188274
Heightened Def Con from 0.00188325 to 0.00188325
Heightened Def Con from 0.00188588 to 0.00188589
Heightened Def Con from 0.00188656 to 0.00188656
Heightened Def Con from 0.00188656 to 0.00188656
Heightened Def Con from 0.00189108 to 0.00189108
Heightened Def Con from 0.00189158 to 0.00189159
Heightened Def Con from 0.00189436 to 0.00189436
Heightened Def Con from 0.00189488 to 0.00189489
Heightened Def Con from 0.00189992 to 0.00189992
Heightened Def Con from 0.00189992 to 0.00189992
Heightened Def Con from 0.0019027 to 0.00190271
Heightened Def Con from 0.00190322 to 0.00190322
Heightened Def Con from 0.00190773 to 0.00190774
Heightened Def Con from 0.00190825 to 0.00190825
Heightened Def Con from 0.00190825 to 0.00190825
Heightened Def Con from 0.00191155 to 0.00191155
Heightened Def Con from 0.00191606 to 0.00191606
Heightened Def Con from 0.00191658 to 0.00191658
Heightened Def Con from 0.00191988 to 0.00191988
Heightened Def Con from 0.00192491 to 0.00192491
Heightened Def Con from 0.0019282 to 0.0019282
Heightened Def Con from 0.00193272 to 0.00193272
Heightened Def Con from 0.00193323 to 0.00193323
Heightened Def Con from 0.00193602 to 0.00193602
Heightened Def Con from 0.00193654 to 0.00193654
Heightened Def Con from 0.00193654 to 0.00193654
Heightened Def Con from 0.00194106 to 0.00194106
Heightened Def Con from 0.00194156 to 0.00194157
Heightened Def Con from 0.00194435 to 0.00194435
Heightened Def Con from 0.00194486 to 0.00194486
Heightened Def Con from 0.00194486 to 0.00194486
Heightened Def Con from 0.00194938 to 0.00194938
Heightened Def Con from 0.00194989 to 0.00194989
Heightened Def Con from 0.00194989 to 0.00194989
Heightened Def Con from 0.00195319 to 0.0019532
Heightened Def Con from 0.0019532 to 0.0019532
Heightened Def Con from 0.00195822 to 0.00195823
Heightened Def Con from 0.00196152 to 0.00196152
Heightened Def Con from 0.00196152 to 0.00196152
Heightened Def Con from 0.00196655 to 0.00196655
Heightened Def Con from 0.00196934 to 0.00196935
Heightened Def Con from 0.00196986 to 0.00196986
Heightened Def Con from 0.00196986 to 0.00196986
Heightened Def Con from 0.00197819 to 0.00197819
Heightened Def Con from 0.0019827 to 0.0019827
Heightened Def Con from 0.00198321 to 0.00198321
Heightened Def Con from 0.001986 to 0.001986
Heightened Def Con from 0.00198652 to 0.00198652
Heightened Def Con from 0.00199155 to 0.00199155
Heightened Def Con from 0.00199433 to 0.00199434
Heightened Def Con from 0.00199485 to 0.00199485
Heightened Def Con from 0.00199988 to 0.00199988
Heightened Def Con from 0.00200821 to 0.00200821
Heightened Def Con from 0.00201099 to 0.002011
Heightened Def Con from 0.00201151 to 0.00201151
Heightened Def Con from 0.00201151 to 0.00201151
Heightened Def Con from 0.00201654 to 0.00201654
Heightened Def Con from 0.00201932 to 0.00201932
Heightened Def Con from 0.00201984 to 0.00201984
Heightened Def Con from 0.00201984 to 0.00201984
Heightened Def Con from 0.00202486 to 0.00202486
Heightened Def Con from 0.00202817 to 0.00202817
Heightened Def Con from 0.00203319 to 0.0020332
Heightened Def Con from 0.00203649 to 0.00203649
Heightened Def Con from 0.00203649 to 0.0020365
Heightened Def Con from 0.00204102 to 0.00204102
Heightened Def Con from 0.00204431 to 0.00204431
Heightened Def Con from 0.00204483 to 0.00204483
Heightened Def Con from 0.00204483 to 0.00204483
Heightened Def Con from 0.00204933 to 0.00204934
Heightened Def Con from 0.00204985 to 0.00204986
Heightened Def Con from 0.00205264 to 0.00205264
Heightened Def Con from 0.00205315 to 0.00205316
Heightened Def Con from 0.00205316 to 0.00205316
Heightened Def Con from 0.00205767 to 0.00205767
Heightened Def Con from 0.00205818 to 0.00205819
Heightened Def Con from 0.00206097 to 0.00206098
Heightened Def Con from 0.00206149 to 0.0020615
Heightened Def Con from 0.00206601 to 0.00206601
Heightened Def Con from 0.00206652 to 0.00206652
Heightened Def Con from 0.00206982 to 0.00206982
Heightened Def Con from 0.00206982 to 0.00206982
Heightened Def Con from 0.00207485 to 0.00207485
Heightened Def Con from 0.00207815 to 0.00207815
Heightened Def Con from 0.00207815 to 0.00207815
Heightened Def Con from 0.00208318 to 0.00208318
Heightened Def Con from 0.00208596 to 0.00208597
Heightened Def Con from 0.00208648 to 0.00208648
Heightened Def Con from 0.00208648 to 0.00208648
Heightened Def Con from 0.002091 to 0.002091
Heightened Def Con from 0.00209151 to 0.00209151
Heightened Def Con from 0.00209931 to 0.00209931
Heightened Def Con from 0.00209983 to 0.00209983
Heightened Def Con from 0.00210263 to 0.00210263
Heightened Def Con from 0.00210314 to 0.00210314
Heightened Def Con from 0.00210817 to 0.00210817
Heightened Def Con from 0.00211147 to 0.00211147
Heightened Def Con from 0.00211598 to 0.00211599
Heightened Def Con from 0.0021165 to 0.0021165
Heightened Def Con from 0.0021198 to 0.0021198
Heightened Def Con from 0.00212431 to 0.00212431
Heightened Def Con from 0.00212483 to 0.00212483
Heightened Def Con from 0.00212813 to 0.00212813
Heightened Def Con from 0.00212813 to 0.00212813
Heightened Def Con from 0.00213315 to 0.00213315
Heightened Def Con from 0.00213315 to 0.00213315
Heightened Def Con from 0.00213595 to 0.00213595
Heightened Def Con from 0.00213645 to 0.00213645
Heightened Def Con from 0.00214149 to 0.00214149
Heightened Def Con from 0.00214427 to 0.00214427
Heightened Def Con from 0.00214479 to 0.00214479
Heightened Def Con from 0.0021493 to 0.0021493
Heightened Def Con from 0.00214982 to 0.00214982
Heightened Def Con from 0.00215312 to 0.00215312
Heightened Def Con from 0.00215814 to 0.00215814
Heightened Def Con from 0.00216094 to 0.00216094
Heightened Def Con from 0.00216145 to 0.00216145
Heightened Def Con from 0.00216648 to 0.00216648
Heightened Def Con from 0.00216978 to 0.00216978
Heightened Def Con from 0.00216978 to 0.00216978
Heightened Def Con from 0.0021748 to 0.00217481
Heightened Def Con from 0.00217811 to 0.00217811
Heightened Def Con from 0.00217811 to 0.00217811
Heightened Def Con from 0.00218262 to 0.00218263
Heightened Def Con from 0.00218313 to 0.00218313
Heightened Def Con from 0.00218644 to 0.00218644
Heightened Def Con from 0.00218644 to 0.00218644
Heightened Def Con from 0.00219096 to 0.00219096
Heightened Def Con from 0.00219147 to 0.00219147
Heightened Def Con from 0.00219147 to 0.00219147
Heightened Def Con from 0.00219425 to 0.00219425
Heightened Def Con from 0.00219477 to 0.00219477
Heightened Def Con from 0.00219979 to 0.00219979
Heightened Def Con from 0.0022031 to 0.0022031
Heightened Def Con from 0.0022031 to 0.0022031
Heightened Def Con from 0.00220813 to 0.00220813
Heightened Def Con from 0.00221143 to 0.00221143
Heightened Def Con from 0.00221594 to 0.00221595
Heightened Def Con from 0.00221646 to 0.00221646
Heightened Def Con from 0.00221924 to 0.00221925
Heightened Def Con from 0.00221976 to 0.00221976
Heightened Def Con from 0.00222427 to 0.00222428
Heightened Def Con from 0.00222479 to 0.00222479
Heightened Def Con from 0.00222758 to 0.00222758
Heightened Def Con from 0.00223312 to 0.00223312
Heightened Def Con from 0.00223642 to 0.00223642
Heightened Def Con from 0.00223642 to 0.00223642
Heightened Def Con from 0.00224144 to 0.00224144
Heightened Def Con from 0.00224144 to 0.00224144
Heightened Def Con from 0.00224144 to 0.00224144
Heightened Def Con from 0.00224423 to 0.00224423
Heightened Def Con from 0.00224474 to 0.00224474
Heightened Def Con from 0.00224474 to 0.00224474
Heightened Def Con from 0.00224977 to 0.00224978
Heightened Def Con from 0.00225308 to 0.00225308
Heightened Def Con from 0.00225308 to 0.00225308
Heightened Def Con from 0.00225759 to 0.00225759
Heightened Def Con from 0.0022581 to 0.0022581
Heightened Def Con from 0.0022581 to 0.0022581
Heightened Def Con from 0.00226141 to 0.00226141
Heightened Def Con from 0.00226644 to 0.00226644
Heightened Def Con from 0.00226974 to 0.00226974
Heightened Def Con from 0.00226974 to 0.00226974
Heightened Def Con from 0.00227476 to 0.00227476
Heightened Def Con from 0.00227476 to 0.00227476
Heightened Def Con from 0.00227754 to 0.00227754
Heightened Def Con from 0.00227807 to 0.00227807
Heightened Def Con from 0.00227807 to 0.00227807
Heightened Def Con from 0.0022831 to 0.0022831
Heightened Def Con from 0.00228588 to 0.00228588
Heightened Def Con from 0.00228588 to 0.00228588
Heightened Def Con from 0.00228639 to 0.00228639
Heightened Def Con from 0.00228639 to 0.00228639
Heightened Def Con from 0.00229143 to 0.00229143
Heightened Def Con from 0.0022942 to 0.0022942
Heightened Def Con from 0.00229473 to 0.00229473

Date: Wed Jun  4 13:29:53 2025
Total elapsed time: 447.706 seconds.

tnom = 27
temp = 27
method = modified trap
totiter = 4142646
traniter = 4124243
tranpoints = 1010206
accept = 775388
rejected = 236134
matrix size = 289
fillins = 137
solver = Normal
Avg thread counts: 1.0/1.0/1.0/1.0
Matrix Compiler1: 15.18 KB object code size  6.6/4.9/[2.0]
Matrix Compiler2: 20.69 KB object code size  9.2/9.5/[5.9]

